units(length='cm', time='s', quantity='mol', act_energy='kcal/mol')

ideal_gas(name='gas',
          elements="H D T C Ci O Oi N Ne Ar He Si S Cl X",
          species="""Ne          H4N2O2(2)   NH2OH(3)    HNO3(4)
                     CH3OH(5)    H2O(6)      N2(7)       O2(8)
                     CO2(9)      H2(10)      CO(11)      C2H6(12)
                     CH2O(13)    CH3(14)     C3H8(15)    H(16)
                     C2H5(17)    HCO(18)     CH3CHO(19)  OH(20)
                     C2H4(21)    CH4(24)     O(33)       HO2(36)
                     CH2OH(42)   CH3O(43)    NH2(82)     HNO(85)
                     H2NO(86)    NO2(92)     HNOH(94)    NO3(96)
                     N2H2(97)    N2H3(99)    N2H4(100)   H3N2O(195)
                     S(196)      H2NO2(197)  S(198)      S(199)
                     HNO3(200)   H2NO3(246)  S(258)      NH2NO(381)
                     HNO(382)    H2N2O(387)  NNO(394)    H4N2O(395)
                     S(403)      S(425)      S(430)      NOHJJ(452)
                     H2N2(507)   S(750)      S(932)""",
          reactions='gas-*',
          transport='Mix',
          initial_state=state(temperature=300.0, pressure=OneAtm))

ideal_interface(name='surface1',
                elements="H D T C Ci O Oi N Ne Ar He Si S Cl X",
                species="""X(1)        HX(22)      OX(23)      CH3X(25)
                          HOX(26)     H2OX(27)    CO2X(28)    OCX(29)
                          CX(30)      CH2X(31)    CHX(32)     *ONN(208)
                          HO2X(209)   *NN(210)    *OONN(211)  *NOO(212)
                          *N(213)     SX(214)     *NNOO(215)  SX(216)
                          *ON(217)    *NO(218)    H3NOX(219)  NO2X(220)
                          NO3X(221)   HNO3X(222)  CH3OX(223)  CH3OX(224)
                          CH4OX(225)  HOX(243)    SX(392)     SX(393)""",
                site_density=2.9e-09,
                phases="gas",
          reactions='surface1-*',
                initial_state=state(temperature=300.0, pressure=OneAtm))

#-------------------------------------------------------------------------------
# Element data
#-------------------------------------------------------------------------------

element(symbol='Ci', atomic_mass=13.003)
element(symbol='D', atomic_mass=2.014)
element(symbol='Oi', atomic_mass=18.0)
element(symbol='T', atomic_mass=3.016)
element(symbol='X', atomic_mass=195.083)
#-------------------------------------------------------------------------------
# Species data
#-------------------------------------------------------------------------------

species(name='Ne',
        atoms='Ne:1',
        thermo=(NASA([200.00, 1000.00],
                     [ 2.50000000E+00,  0.00000000E+00,  0.00000000E+00,
                       0.00000000E+00,  0.00000000E+00, -7.45375000E+02,
                       3.35532000E+00]),
                NASA([1000.00, 6000.00],
                     [ 2.50000000E+00,  0.00000000E+00,  0.00000000E+00,
                       0.00000000E+00,  0.00000000E+00, -7.45375000E+02,
                       3.35532000E+00])),
        transport=gas_transport(geom='atom',
                                diam=3.758,
                                well_depth=148.6))

species(name='H4N2O2(2)',
        atoms='H:4 N:2 O:2',
        thermo=(NASA([10.00, 519.54],
                     [ 3.92183000E+00,  4.86119000E-03,  8.92994000E-05,
                      -1.91351000E-07,  1.23508000E-10,  9.88158000E+03,
                       8.42535000E+00]),
                NASA([519.54, 3000.00],
                     [ 3.53367000E+00,  2.45036000E-02, -1.54954000E-05,
                       4.82131000E-09, -5.80219000E-13,  9.69715000E+03,
                       7.88072000E+00])),
        transport=gas_transport(geom='nonlinear',
                                diam=4.687,
                                well_depth=531.4))

species(name='NH2OH(3)',
        atoms='H:3 N:1 O:1',
        thermo=(NASA([200.00, 1000.00],
                     [ 3.21016000E+00,  6.19672000E-03,  1.10595000E-05,
                      -1.96668000E-08,  8.82517000E-12, -6.58148000E+03,
                       7.93294000E+00]),
                NASA([1000.00, 6000.00],
                     [ 3.88113000E+00,  8.15708000E-03, -2.82616000E-06,
                       4.37931000E-10, -2.52725000E-14, -6.86018000E+03,
                       3.79156000E+00])),
        transport=gas_transport(geom='nonlinear',
                                diam=3.492,
                                well_depth=116.7,
                                rot_relax=1.0))

species(name='HNO3(4)',
        atoms='H:1 N:1 O:3',
        thermo=(NASA([200.00, 1000.00],
                     [ 1.55975000E+00,  2.01502000E-02, -1.15217000E-05,
                      -2.31891000E-09,  3.17581000E-12, -1.73956000E+04,
                       1.77295000E+01]),
                NASA([1000.00, 6000.00],
                     [ 8.03061000E+00,  4.46368000E-03, -1.72273000E-06,
                       2.91612000E-10, -1.80487000E-14, -1.93034000E+04,
                      -1.62543000E+01])),
        transport=gas_transport(geom='nonlinear',
                                diam=4.2,
                                well_depth=400.0,
                                dipole=0.2,
                                rot_relax=1.0))

species(name='CH3OH(5)',
        atoms='C:1 H:4 O:1',
        thermo=(NASA([200.00, 1000.00],
                     [ 5.52796000E+00, -1.38922000E-02,  6.21716000E-05,
                      -6.82045000E-08,  2.52019000E-11, -2.55968000E+04,
                      -7.15601000E-01]),
                NASA([1000.00, 6000.00],
                     [ 3.71776000E+00,  1.00962000E-02, -3.53785000E-06,
                       5.61843000E-10, -3.32714000E-14, -2.60222000E+04,
                       4.04183000E+00])),
        transport=gas_transport(geom='nonlinear',
                                diam=3.626,
                                well_depth=481.8,
                                rot_relax=1.0))

species(name='H2O(6)',
        atoms='H:2 O:1',
        thermo=(NASA([100.00, 1130.25],
                     [ 4.05763720E+00, -7.87951343E-04,  2.90882564E-06,
                      -1.47524910E-09,  2.12866372E-13, -3.02815867E+04,
                      -3.11369025E-01]),
                NASA([1130.25, 5000.00],
                     [ 2.84324104E+00,  2.75110073E-03, -7.81040007E-07,
                       1.07245603E-10, -5.79408217E-15, -2.99586086E+04,
                       5.91047337E+00])),
        transport=gas_transport(geom='nonlinear',
                                diam=2.641,
                                well_depth=809.102,
                                polar=1.76,
                                rot_relax=4.0))

species(name='N2(7)',
        atoms='N:2',
        thermo=(NASA([200.00, 1000.00],
                     [ 3.53101000E+00, -1.23661000E-04, -5.02999000E-07,
                       2.43531000E-09, -1.40881000E-12, -1.04698000E+03,
                       2.96747000E+00]),
                NASA([1000.00, 6000.00],
                     [ 2.95258000E+00,  1.39690000E-03, -4.92632000E-07,
                       7.86010000E-11, -4.60755000E-15, -9.23949000E+02,
                       5.87189000E+00])),
        transport=gas_transport(geom='linear',
                                diam=3.621,
                                well_depth=97.53,
                                polar=1.76,
                                rot_relax=4.0))

species(name='O2(8)',
        atoms='O:2',
        thermo=(NASA([100.00, 1074.56],
                     [ 3.53732118E+00, -1.21570207E-03,  5.31615377E-06,
                      -4.89440387E-09,  1.45843816E-12, -1.03858843E+03,
                       4.68368631E+00]),
                NASA([1074.56, 5000.00],
                     [ 3.15382772E+00,  1.67803228E-03, -7.69967779E-07,
                       1.51273960E-10, -1.08781182E-14, -1.04082030E+03,
                       6.16751919E+00])),
        transport=gas_transport(geom='linear',
                                diam=3.467,
                                well_depth=106.7))

species(name='CO2(9)',
        atoms='C:1 O:2',
        thermo=(NASA([200.00, 1000.00],
                     [ 2.20664000E+00,  1.00970000E-02, -9.96339000E-06,
                       5.47156000E-09, -1.27734000E-12, -4.83530000E+04,
                       1.05262000E+01]),
                NASA([1000.00, 6000.00],
                     [ 4.63537000E+00,  2.74559000E-03, -9.98282000E-07,
                       1.61014000E-10, -9.22019000E-15, -4.90204000E+04,
                      -1.92888000E+00])),
        transport=gas_transport(geom='linear',
                                diam=3.941,
                                well_depth=195.201))

species(name='H2(10)',
        atoms='H:2',
        thermo=(NASA([100.00, 1959.08],
                     [ 3.43536411E+00,  2.12710383E-04, -2.78625110E-07,
                       3.40267219E-10, -7.76032129E-14, -1.03135984E+03,
                      -3.90841731E+00]),
                NASA([1959.08, 5000.00],
                     [ 2.78816619E+00,  5.87640475E-04,  1.59010635E-07,
                      -5.52739465E-11,  4.34311304E-15, -5.96144481E+02,
                       1.12730527E-01])),
        transport=gas_transport(geom='linear',
                                diam=2.833,
                                well_depth=59.7))

species(name='CO(11)',
        atoms='C:1 O:1',
        thermo=(NASA([200.00, 1000.00],
                     [ 3.59508000E+00, -7.21197000E-04,  1.28238000E-06,
                       6.52429000E-10, -8.21715000E-13, -1.43449000E+04,
                       3.44356000E+00]),
                NASA([1000.00, 6000.00],
                     [ 3.03397000E+00,  1.37328000E-03, -4.96445000E-07,
                       8.10281000E-11, -4.85332000E-15, -1.42586000E+04,
                       6.10076000E+00])),
        transport=gas_transport(geom='linear',
                                diam=3.69,
                                well_depth=91.7,
                                polar=1.76,
                                rot_relax=4.0))

species(name='C2H6(12)',
        atoms='C:2 H:6',
        thermo=(NASA([200.00, 1000.00],
                     [ 4.14633000E+00, -4.42384000E-03,  5.70676000E-05,
                      -6.76419000E-08,  2.57224000E-11, -1.15145000E+04,
                       3.26636000E+00]),
                NASA([1000.00, 6000.00],
                     [ 3.97869000E+00,  1.54587000E-02, -5.37527000E-06,
                       8.59587000E-10, -5.11298000E-14, -1.24446000E+04,
                      -6.27170000E-01])),
        transport=gas_transport(geom='nonlinear',
                                diam=4.302,
                                well_depth=252.3,
                                rot_relax=1.5))

species(name='CH2O(13)',
        atoms='C:1 H:2 O:1',
        thermo=(NASA([200.00, 1000.00],
                     [ 4.77187000E+00, -9.76266000E-03,  3.70122000E-05,
                      -3.76922000E-08,  1.31327000E-11, -1.43798000E+04,
                       6.96586000E-01]),
                NASA([1000.00, 6000.00],
                     [ 2.91333000E+00,  6.70040000E-03, -2.55521000E-06,
                       4.27795000E-10, -2.44073000E-14, -1.44622000E+04,
                       7.43823000E+00])),
        transport=gas_transport(geom='nonlinear',
                                diam=3.59,
                                well_depth=498.0,
                                rot_relax=2.0))

species(name='CH3(14)',
        atoms='C:1 H:3',
        thermo=(NASA([200.00, 1000.00],
                     [ 3.61264000E+00,  3.09209000E-03,  9.25475000E-07,
                      -1.65777000E-09,  6.07244000E-13,  1.63850000E+04,
                       1.79995000E+00]),
                NASA([1000.00, 6000.00],
                     [ 2.92198000E+00,  5.37479000E-03, -1.99748000E-06,
                       2.97585000E-10, -1.71860000E-14,  1.65447000E+04,
                       5.25397000E+00])),
        transport=gas_transport(geom='nonlinear',
                                diam=3.8,
                                well_depth=144.0))

species(name='C3H8(15)',
        atoms='C:3 H:8',
        thermo=(NASA([100.00, 989.99],
                     [ 3.06337235E+00,  1.29213276E-02,  3.47037401E-05,
                      -4.70952219E-08,  1.71386763E-11, -1.43905793E+04,
                       1.07835211E+01]),
                NASA([989.99, 5000.00],
                     [ 5.60435845E+00,  2.19529500E-02, -8.22084738E-06,
                       1.50104968E-09, -1.05636167E-13, -1.58393862E+04,
                      -6.22599672E+00])),
        transport=gas_transport(geom='nonlinear',
                                diam=4.982,
                                well_depth=266.801,
                                rot_relax=1.0))

species(name='H(16)',
        atoms='H:1',
        thermo=(NASA([100.00, 4383.16],
                     [ 2.50000000E+00, -2.38914167E-13,  3.12709494E-16,
                      -1.33367320E-19,  1.74989654E-23,  2.54742178E+04,
                      -4.44972897E-01]),
                NASA([4383.16, 5000.00],
                     [ 2.50003447E+00, -3.04996987E-08,  1.01101187E-11,
                      -1.48796738E-15,  8.20356170E-20,  2.54741866E+04,
                      -4.45191184E-01])),
        transport=gas_transport(geom='atom',
                                diam=2.05,
                                well_depth=145.0))

species(name='C2H5(17)',
        atoms='C:2 H:5',
        thermo=(NASA([200.00, 1000.00],
                     [ 4.11105000E+00, -2.63844000E-03,  4.60475000E-05,
                      -5.64273000E-08,  2.19028000E-11,  1.30014000E+04,
                       4.99418000E+00]),
                NASA([1000.00, 6000.00],
                     [ 4.41717000E+00,  1.22704000E-02, -4.34558000E-06,
                       6.94963000E-10, -4.13531000E-14,  1.21468000E+04,
                      -3.87435000E-01])),
        transport=gas_transport(geom='nonlinear',
                                diam=4.302,
                                well_depth=252.3,
                                rot_relax=1.5))

species(name='HCO(18)',
        atoms='C:1 H:1 O:1',
        thermo=(NASA([200.00, 1000.00],
                     [ 3.97075000E+00, -1.49122000E-03,  9.54042000E-06,
                      -8.82720000E-09,  2.67645000E-12,  3.84203000E+03,
                       4.44660000E+00]),
                NASA([1000.00, 6000.00],
                     [ 3.85781000E+00,  2.64114000E-03, -7.44177000E-07,
                       1.23313000E-10, -8.88959000E-15,  3.61643000E+03,
                       3.92451000E+00])),
        transport=gas_transport(geom='nonlinear',
                                diam=3.59,
                                well_depth=498.0))

species(name='CH3CHO(19)',
        atoms='C:2 H:4 O:1',
        thermo=(NASA([200.00, 1000.00],
                     [ 4.72946000E+00, -3.19329000E-03,  4.75349000E-05,
                      -5.74586000E-08,  2.19311000E-11, -2.15729000E+04,
                       4.10302000E+00]),
                NASA([1000.00, 6000.00],
                     [ 5.40411000E+00,  1.17231000E-02, -4.22631000E-06,
                       6.83725000E-10, -4.09849000E-14, -2.25931000E+04,
                      -3.48079000E+00])),
        transport=gas_transport(geom='nonlinear',
                                diam=3.97,
                                well_depth=436.0,
                                rot_relax=2.0))

species(name='OH(20)',
        atoms='H:1 O:1',
        thermo=(NASA([100.00, 1145.76],
                     [ 3.51456841E+00,  2.92731942E-05, -5.32149835E-07,
                       1.01947431E-09, -3.85939061E-13,  3.41425418E+03,
                       2.10434749E+00]),
                NASA([1145.76, 5000.00],
                     [ 3.07193709E+00,  6.04020086E-04, -1.39807303E-08,
                      -2.13440498E-11,  2.48061111E-15,  3.57938799E+03,
                       4.57801556E+00])),
        transport=gas_transport(geom='linear',
                                diam=2.75,
                                well_depth=80.0))

species(name='C2H4(21)',
        atoms='C:2 H:4',
        thermo=(NASA([200.00, 1000.00],
                     [ 3.65151000E+00, -5.35067000E-03,  5.16486000E-05,
                      -6.36869000E-08,  2.50743000E-11,  5.11451000E+03,
                       5.38561000E+00]),
                NASA([1000.00, 6000.00],
                     [ 4.14446000E+00,  1.02648000E-02, -3.61247000E-06,
                       5.74009000E-10, -3.39296000E-14,  4.19059000E+03,
                      -1.14778000E+00])),
        transport=gas_transport(geom='nonlinear',
                                diam=3.971,
                                well_depth=280.8,
                                rot_relax=1.5))

species(name='CH4(24)',
        atoms='C:1 H:4',
        thermo=(NASA([100.00, 1084.15],
                     [ 4.20540072E+00, -5.35540640E-03,  2.51117636E-05,
                      -2.13755910E-08,  5.97496145E-12, -1.01619427E+04,
                      -9.21226951E-01]),
                NASA([1084.15, 5000.00],
                     [ 9.08349401E-01,  1.14539479E-02, -4.57166053E-06,
                       8.29173612E-10, -5.66300105E-14, -9.72001110E+03,
                       1.39926204E+01])),
        transport=gas_transport(geom='nonlinear',
                                diam=3.746,
                                well_depth=141.4,
                                polar=2.6,
                                rot_relax=13.0))

species(name='O(33)',
        atoms='O:1',
        thermo=(NASA([100.00, 4383.16],
                     [ 2.50000000E+00, -2.38914167E-13,  3.12709494E-16,
                      -1.33367320E-19,  1.74989654E-23,  2.92302441E+04,
                       5.12616427E+00]),
                NASA([4383.16, 5000.00],
                     [ 2.50003447E+00, -3.04996987E-08,  1.01101187E-11,
                      -1.48796738E-15,  8.20356170E-20,  2.92302130E+04,
                       5.12594599E+00])),
        transport=gas_transport(geom='atom',
                                diam=2.75,
                                well_depth=80.0))

species(name='HO2(36)',
        atoms='H:1 O:2',
        thermo=(NASA([200.00, 1000.00],
                     [ 4.26251000E+00, -4.45642000E-03,  2.05165000E-05,
                      -2.35794000E-08,  9.05614000E-12,  2.62442000E+02,
                       3.88224000E+00]),
                NASA([1000.00, 6000.00],
                     [ 4.10564000E+00,  2.04047000E-03, -3.65878000E-07,
                       1.85973000E-11,  4.98818000E-16,  4.32899000E+01,
                       3.30808000E+00])),
        transport=gas_transport(geom='nonlinear',
                                diam=3.458,
                                well_depth=107.4,
                                rot_relax=1.0))

species(name='CH2OH(42)',
        atoms='C:1 H:3 O:1',
        thermo=(NASA([200.00, 1000.00],
                     [ 4.40537000E+00, -7.58358000E-04,  2.61926000E-05,
                      -3.46319000E-08,  1.40820000E-11, -3.44228000E+03,
                       3.60691000E+00]),
                NASA([1000.00, 2000.00],
                     [ 6.20504000E+00,  2.43666000E-03,  1.94377000E-06,
                      -1.61013000E-09,  3.14355000E-13, -4.25844000E+03,
                      -7.46071000E+00])),
        transport=gas_transport(geom='nonlinear',
                                diam=3.69,
                                well_depth=417.0,
                                dipole=1.7,
                                rot_relax=2.0))

species(name='CH3O(43)',
        atoms='C:1 H:3 O:1',
        thermo=(NASA([200.00, 1000.00],
                     [ 3.71623000E+00, -2.83501000E-03,  3.77227000E-05,
                      -4.73648000E-08,  1.86739000E-11,  1.35874000E+03,
                       6.55373000E+00]),
                NASA([1000.00, 6000.00],
                     [ 4.75205000E+00,  7.44944000E-03, -2.70076000E-06,
                       4.38793000E-10, -2.64006000E-14,  4.44371000E+02,
                      -1.93362000E+00])),
        transport=gas_transport(geom='nonlinear',
                                diam=3.69,
                                well_depth=417.0,
                                dipole=1.7,
                                rot_relax=2.0))

species(name='NH2(82)',
        atoms='H:2 N:1',
        thermo=(NASA([100.00, 1522.06],
                     [ 4.08973448E+00, -1.15510138E-03,  4.13792931E-06,
                      -2.48320358E-09,  4.84266256E-13,  2.11773523E+04,
                       2.89571669E-01]),
                NASA([1522.06, 5000.00],
                     [ 2.68017679E+00,  3.36838246E-03, -1.12726257E-06,
                       1.76551709E-10, -1.06782934E-14,  2.15115546E+04,
                       7.37028230E+00])),
        transport=gas_transport(geom='nonlinear',
                                diam=2.65,
                                well_depth=80.0,
                                polar=2.26,
                                rot_relax=4.0))

species(name='HNO(85)',
        atoms='H:1 N:1 O:1',
        thermo=(NASA([200.00, 1000.00],
                     [ 4.55326000E+00, -5.84532000E-03,  1.88854000E-05,
                      -1.76040000E-08,  5.72890000E-12,  1.16316000E+04,
                       1.66851000E+00]),
                NASA([1000.00, 6000.00],
                     [ 3.24129000E+00,  2.72377000E-03, -1.60633000E-07,
                      -9.79135000E-11,  1.17104000E-14,  1.17746000E+04,
                       7.27914000E+00])),
        transport=gas_transport(geom='nonlinear',
                                diam=3.43,
                                well_depth=170.0,
                                dipole=1.62,
                                rot_relax=1.0))

species(name='H2NO(86)',
        atoms='H:2 N:1 O:1',
        thermo=(NASA([200.00, 1000.00],
                     [ 3.93201000E+00, -1.64028000E-04,  1.39161000E-05,
                      -1.62748000E-08,  6.00353000E-12,  6.71179000E+03,
                       4.58837000E+00]),
                NASA([1000.00, 6000.00],
                     [ 3.75556000E+00,  5.16219000E-03, -1.76387000E-06,
                       2.75053000E-10, -1.60643000E-14,  6.51826000E+03,
                       4.30933000E+00])),
        transport=gas_transport(geom='nonlinear',
                                diam=3.492,
                                well_depth=116.7,
                                rot_relax=1.0))

species(name='NO2(92)',
        atoms='N:1 O:2',
        thermo=(NASA([200.00, 1000.00],
                     [ 3.78713000E+00, -4.29577000E-04,  1.37384000E-05,
                      -1.74264000E-08,  6.71250000E-12,  2.89500000E+03,
                       6.96592000E+00]),
                NASA([1000.00, 6000.00],
                     [ 4.90482000E+00,  2.14474000E-03, -8.12654000E-07,
                       1.55512000E-10, -1.04114000E-14,  2.28959000E+03,
                      -2.33567000E-01])),
        transport=gas_transport(geom='nonlinear',
                                diam=3.852,
                                well_depth=333.59,
                                dipole=0.4,
                                rot_relax=1.0))

species(name='HNOH(94)',
        atoms='H:2 N:1 O:1',
        thermo=(NASA([200.00, 1000.00],
                     [ 3.95608000E+00, -3.02611000E-03,  2.56874000E-05,
                      -3.15645000E-08,  1.24085000E-11,  1.09200000E+04,
                       5.55951000E+00]),
                NASA([1000.00, 6000.00],
                     [ 3.98322000E+00,  4.88846000E-03, -1.65087000E-06,
                       2.55371000E-10, -1.48309000E-14,  1.05780000E+04,
                       3.62583000E+00])),
        transport=gas_transport(geom='nonlinear',
                                diam=3.492,
                                well_depth=116.7,
                                rot_relax=1.0))

species(name='NO3(96)',
        atoms='N:1 O:3',
        thermo=(NASA([200.00, 1000.00],
                     [ 3.35587000E+00,  1.06545000E-02, -2.86690000E-06,
                      -5.14712000E-09,  3.08532000E-12,  7.47535000E+03,
                       8.94787000E+00]),
                NASA([1000.00, 6000.00],
                     [ 7.37569000E+00,  2.21733000E-03, -5.75696000E-07,
                       6.69775000E-11, -2.58935000E-15,  6.22446000E+03,
                      -1.24945000E+01])),
        transport=gas_transport(geom='nonlinear',
                                diam=4.2,
                                well_depth=400.0,
                                dipole=0.2,
                                rot_relax=1.0))

species(name='N2H2(97)',
        atoms='H:2 N:2',
        thermo=(NASA([200.00, 1000.00],
                     [ 4.91066000E+00, -1.07792000E-02,  3.86516000E-05,
                      -3.86502000E-08,  1.34852000E-11,  2.28242000E+04,
                       9.10273000E-02]),
                NASA([1000.00, 6000.00],
                     [ 1.31115000E+00,  9.00187000E-03, -3.14912000E-06,
                       4.81450000E-10, -2.71898000E-14,  2.33863000E+04,
                       1.64091000E+01])),
        transport=gas_transport(geom='nonlinear',
                                diam=3.798,
                                well_depth=71.4,
                                rot_relax=1.0))

species(name='N2H3(99)',
        atoms='H:3 N:2',
        thermo=(NASA([200.00, 1000.00],
                     [ 3.42126000E+00,  1.34902000E-03,  2.23459000E-05,
                      -2.99728000E-08,  1.20979000E-11,  2.58199000E+04,
                       7.83176000E+00]),
                NASA([1000.00, 6000.00],
                     [ 4.04484000E+00,  7.31130000E-03, -2.47626000E-06,
                       3.83733000E-10, -2.23108000E-14,  2.53241000E+04,
                       2.88423000E+00])),
        transport=gas_transport(geom='nonlinear',
                                diam=3.9,
                                well_depth=200.0,
                                rot_relax=1.0))

species(name='N2H4(100)',
        atoms='H:4 N:2',
        thermo=(NASA([200.00, 1000.00],
                     [ 3.83472000E+00, -6.49130000E-04,  3.76848000E-05,
                      -5.00709000E-08,  2.03362000E-11,  1.00894000E+04,
                       5.75272000E+00]),
                NASA([1000.00, 6000.00],
                     [ 4.93957000E+00,  8.75017000E-03, -2.99399000E-06,
                       4.67278000E-10, -2.73069000E-14,  9.28266000E+03,
                      -2.69440000E+00])),
        transport=gas_transport(geom='nonlinear',
                                diam=4.23,
                                well_depth=205.0,
                                polar=4.26,
                                rot_relax=1.5))

species(name='H3N2O(195)',
        atoms='H:3 N:2 O:1',
        thermo=(NASA([100.00, 1009.73],
                     [ 3.29854241E+00,  1.08119461E-02,  9.10244225E-06,
                      -1.84281526E-08,  7.37180310E-12,  1.63940656E+04,
                       1.00364511E+01]),
                NASA([1009.73, 5000.00],
                     [ 6.80542984E+00,  8.03028652E-03, -3.27062012E-06,
                       6.38511418E-10, -4.70164467E-14,  1.51194600E+04,
                      -9.72092806E+00])),
        transport=gas_transport(geom='nonlinear',
                                diam=5.118,
                                well_depth=237.1))

species(name='S(196)',
        atoms='H:3 N:2 O:2',
        thermo=(NASA([10.00, 353.25],
                     [ 3.91846000E+00,  6.78130000E-03,  8.21289000E-05,
                      -2.38829000E-07,  2.15453000E-10,  2.58739000E+04,
                       9.46799000E+00]),
                NASA([353.25, 3000.00],
                     [ 3.29178000E+00,  2.16229000E-02, -1.37818000E-05,
                       4.24654000E-09, -5.02730000E-13,  2.58699000E+04,
                       1.11553000E+01])),
        transport=gas_transport(geom='nonlinear',
                                diam=4.687,
                                well_depth=531.4))

species(name='H2NO2(197)',
        atoms='H:2 N:1 O:2',
        thermo=(NASA([10.00, 443.89],
                     [ 3.96021000E+00,  2.73934000E-03,  4.84563000E-05,
                      -1.17663000E-07,  8.74214000E-11,  1.79985000E+04,
                       7.54055000E+00]),
                NASA([443.89, 3000.00],
                     [ 3.67876000E+00,  1.23117000E-02, -7.66787000E-06,
                       2.33790000E-09, -2.75477000E-13,  1.79542000E+04,
                       7.88894000E+00])),
        transport=gas_transport(geom='nonlinear',
                                diam=5.118,
                                well_depth=237.1))

species(name='S(198)',
        atoms='H:3 N:2 O:2',
        thermo=(NASA([10.00, 512.97],
                     [ 3.90299000E+00,  6.14381000E-03,  8.55768000E-05,
                      -2.00625000E-07,  1.36698000E-10,  2.38545000E+04,
                       8.94714000E+00]),
                NASA([512.97, 3000.00],
                     [ 4.76276000E+00,  1.96367000E-02, -1.29380000E-05,
                       4.16178000E-09, -5.13339000E-13,  2.35006000E+04,
                       2.78305000E+00])),
        transport=gas_transport(geom='nonlinear',
                                diam=4.687,
                                well_depth=531.4))

species(name='S(199)',
        atoms='H:3 N:2 O:2',
        thermo=(NASA([10.00, 424.86],
                     [ 3.90234000E+00,  7.07925000E-03,  8.72327000E-05,
                      -2.35562000E-07,  1.88629000E-10,  2.90008000E+04,
                       9.43959000E+00]),
                NASA([424.86, 3000.00],