units(length='cm', time='s', quantity='mol', act_energy='kcal/mol')

ideal_gas(name='gas',
          elements="H D T C Ci O Oi N Ne Ar He Si S Cl X",
          species="""Ar          Ne          N2          H4N2O2(2)
                     NH2OH(3)    HNO3(4)     CH3OH(5)    H2O(6)
                     O2(7)       CO2(8)      H2(9)       CO(10)
                     C2H6(11)    CH2O(12)    CH3(13)     C3H8(14)
                     H(15)       C2H5(16)    HCO(17)     CH3CHO(18)
                     OH(19)      C2H4(20)    CH4(23)     O(32)
                     H3N2O(36)   NH2NHJ(37)  H3N2O2(38)  NH2(D)(40)
                     H3N2O2(42)  NH2OJ(43)   HNOHJ(44)   NO2J(45)
                     NO3J(46)    CH2OH(49)   CH2(S)(50)  NOJ(242)
                     HNO2(246)   HONO(248)   ONOOH(297)  N2O4(305)
                     NH3(313)    H4N2(332)   HNO(333)    HNO(334)
                     H3NO2(366)  NOHJJ(382)  H3NO2(398)  OCO(494)
                     S(496)      S(502)      ONCO(503)   H2N2O(622)
                     S(704)      S(1246)""",
          reactions='gas-*',
          transport='Mix',
          initial_state=state(temperature=300.0, pressure=OneAtm))

ideal_interface(name='surface1',
                elements="H D T C Ci O Oi N Ne Ar He Si S Cl X",
                species="""X(1)        HX(21)      OX(22)      CH3X(24)
                          HOX(25)     H2OX(26)    CO2X(27)    OCX(28)
                          CX(29)      CH2X(30)    CHX(31)     *ONN(63)
                          *NN(65)     *N(68)      *NNOO(70)   SX(71)
                          *ON(72)     *NO(73)     H3NOX(74)   NO2X(75)
                          NO3X(76)    NO2OHX(77)  CH3OX(78)   CH3OX(79)
                          CH4OX(80)   NO2X(244)   NOX(434)    HNOX(906)""",
                site_density=2.9e-09,
                phases="gas",
          reactions='surface1-*',
                initial_state=state(temperature=300.0, pressure=OneAtm))

#-------------------------------------------------------------------------------
# Element data
#-------------------------------------------------------------------------------

element(symbol=u'Ci', atomic_mass=13.003)
element(symbol=u'D', atomic_mass=2.014)
element(symbol=u'Oi', atomic_mass=18.0)
element(symbol=u'T', atomic_mass=3.016)
element(symbol=u'X', atomic_mass=195.083)
#-------------------------------------------------------------------------------
# Species data
#-------------------------------------------------------------------------------

species(name=u'Ar',
        atoms='Ar:1',
        thermo=(NASA([200.00, 1000.00],
                     [ 2.50000000E+00,  0.00000000E+00,  0.00000000E+00,
                       0.00000000E+00,  0.00000000E+00, -7.45375000E+02,
                       4.37967000E+00]),
                NASA([1000.00, 6000.00],
                     [ 2.50000000E+00,  0.00000000E+00,  0.00000000E+00,
                       0.00000000E+00,  0.00000000E+00, -7.45375000E+02,
                       4.37967000E+00])),
        transport=gas_transport(geom='atom',
                                diam=3.33,
                                well_depth=136.501))

species(name=u'Ne',
        atoms='Ne:1',
        thermo=(NASA([200.00, 1000.00],
                     [ 2.50000000E+00,  0.00000000E+00,  0.00000000E+00,
                       0.00000000E+00,  0.00000000E+00, -7.45375000E+02,
                       3.35532000E+00]),
                NASA([1000.00, 6000.00],
                     [ 2.50000000E+00,  0.00000000E+00,  0.00000000E+00,
                       0.00000000E+00,  0.00000000E+00, -7.45375000E+02,
                       3.35532000E+00])),
        transport=gas_transport(geom='atom',
                                diam=3.758,
                                well_depth=148.6))

species(name=u'N2',
        atoms='N:2',
        thermo=(NASA([200.00, 1000.00],
                     [ 3.53101000E+00, -1.23661000E-04, -5.02999000E-07,
                       2.43531000E-09, -1.40881000E-12, -1.04698000E+03,
                       2.96747000E+00]),
                NASA([1000.00, 6000.00],
                     [ 2.95258000E+00,  1.39690000E-03, -4.92632000E-07,
                       7.86010000E-11, -4.60755000E-15, -9.23949000E+02,
                       5.87189000E+00])),
        transport=gas_transport(geom='linear',
                                diam=3.621,
                                well_depth=97.53,
                                polar=1.76,
                                rot_relax=4.0))

species(name=u'H4N2O2(2)',
        atoms='H:4 N:2 O:2',
        thermo=(NASA([100.00, 1001.74],
                     [ 2.54161595E+00,  3.51399645E-02, -3.20409988E-05,
                       1.66468372E-08, -3.80348761E-12,  5.50660167E+02,
                       2.34180036E+01]),
                NASA([1001.74, 5000.00],
                     [ 6.23024614E+00,  2.04112675E-02, -9.98662120E-06,
                       1.96965234E-09, -1.40613505E-13, -1.88359325E+02,
                       5.61603358E+00])),
        transport=gas_transport(geom='nonlinear',
                                diam=4.687,
                                well_depth=531.4))

species(name=u'NH2OH(3)',
        atoms='H:3 N:1 O:1',
        thermo=(NASA([100.00, 1003.06],
                     [ 3.82099339E+00, -4.71622825E-04,  2.62904129E-05,
                      -3.05247151E-08,  1.06030694E-11, -6.16559052E+03,
                       5.65842332E+00]),
                NASA([1003.06, 5000.00],
                     [ 4.72262416E+00,  7.57957297E-03, -3.16645567E-06,
                       6.29236065E-10, -4.68394343E-14, -6.93236902E+03,
                      -1.61475606E+00])),
        transport=gas_transport(geom='nonlinear',
                                diam=3.492,
                                well_depth=116.7,
                                rot_relax=1.0))

species(name=u'HNO3(4)',
        atoms='H:1 N:1 O:3',
        thermo=(NASA([100.00, 964.74],
                     [ 3.37980264E+00,  7.07784754E-03,  1.89742211E-05,
                      -3.13221880E-08,  1.27353105E-11, -1.74102622E+04,
                       1.01296888E+01]),
                NASA([964.74, 5000.00],
                     [ 8.17853060E+00,  3.61030052E-03, -1.17846501E-06,
                       2.55817825E-10, -2.19837792E-14, -1.91007042E+04,
                      -1.68115450E+01])),
        transport=gas_transport(geom='nonlinear',
                                diam=4.2,
                                well_depth=400.0,
                                dipole=0.2,
                                rot_relax=1.0))

species(name=u'CH3OH(5)',
        atoms='C:1 H:4 O:1',
        thermo=(NASA([100.00, 1035.75],
                     [ 3.84006214E+00,  1.38241998E-03,  1.91667191E-05,
                      -2.01568660E-08,  6.39102259E-12, -2.56083087E+04,
                       5.90978137E+00]),
                NASA([1035.75, 5000.00],
                     [ 2.79184298E+00,  1.15827852E-02, -4.51551928E-06,
                       8.21206706E-10, -5.67063250E-14, -2.57211674E+04,
                       9.41061586E+00])),
        transport=gas_transport(geom='nonlinear',
                                diam=3.626,
                                well_depth=481.802,
                                rot_relax=1.0))

species(name=u'H2O(6)',
        atoms='H:2 O:1',
        thermo=(NASA([100.00, 1130.24],
                     [ 4.05763610E+00, -7.87938871E-04,  2.90878480E-06,
                      -1.47520039E-09,  2.12847506E-13, -3.02815866E+04,
                      -3.11365027E-01]),
                NASA([1130.24, 5000.00],
                     [ 2.84324866E+00,  2.75108838E-03, -7.81033120E-07,
                       1.07244016E-10, -5.79395308E-15, -2.99586120E+04,
                       5.91043011E+00])),
        transport=gas_transport(geom='nonlinear',
                                diam=2.605,
                                well_depth=572.402,
                                dipole=1.844,
                                rot_relax=4.0))

species(name=u'O2(7)',
        atoms='O:2',
        thermo=(NASA([100.00, 1074.56],
                     [ 3.53732181E+00, -1.21570930E-03,  5.31617826E-06,
                      -4.89443424E-09,  1.45845042E-12, -1.03858846E+03,
                       4.68368406E+00]),
                NASA([1074.56, 5000.00],
                     [ 3.15382425E+00,  1.67803802E-03, -7.69971022E-07,
                       1.51274714E-10, -1.08781801E-14, -1.04081878E+03,
                       6.16753884E+00])),
        transport=gas_transport(geom='linear',
                                diam=3.458,
                                well_depth=107.4,
                                polar=1.6,
                                rot_relax=3.8))

species(name=u'CO2(8)',
        atoms='C:1 O:2',
        thermo=(NASA([100.00, 978.21],
                     [ 3.28084634E+00,  2.50183460E-03,  8.08199998E-06,
                      -1.20511416E-08,  4.66547255E-12, -4.84008304E+04,
                       6.00080795E+00]),
                NASA([978.21, 5000.00],
                     [ 4.67426743E+00,  2.60964031E-03, -9.85689857E-07,
                       1.95713857E-10, -1.49836245E-14, -4.89512140E+04,
                      -2.11073617E+00])),
        transport=gas_transport(geom='linear',
                                diam=3.763,
                                well_depth=244.001,
                                polar=2.65,
                                rot_relax=2.1))

species(name=u'H2(9)',
        atoms='H:2',
        thermo=(NASA([100.00, 1959.08],
                     [ 3.43536412E+00,  2.12710353E-04, -2.78625043E-07,
                       3.40267167E-10, -7.76031998E-14, -1.03135984E+03,
                      -3.90841732E+00]),
                NASA([1959.08, 5000.00],
                     [ 2.78816583E+00,  5.87640942E-04,  1.59010417E-07,
                      -5.52739026E-11,  4.34310984E-15, -5.96144270E+02,
                       1.12732655E-01])),
        transport=gas_transport(geom='linear',
                                diam=2.92,
                                well_depth=38.0,
                                polar=0.79,
                                rot_relax=280.0))

species(name=u'CO(10)',
        atoms='C:1 O:1',
        thermo=(NASA([100.00, 1571.63],
                     [ 3.56838038E+00, -8.52129500E-04,  2.48918819E-06,
                      -1.56331996E-09,  3.13598127E-13, -1.42842550E+04,
                       3.57912028E+00]),
                NASA([1571.63, 5000.00],
                     [ 2.91305202E+00,  1.64659937E-03, -6.88625686E-07,
                       1.21039677E-10, -7.84035796E-15, -1.41808768E+04,
                       6.71054299E+00])),
        transport=gas_transport(geom='linear',
                                diam=3.65,
                                well_depth=98.1,
                                polar=1.95,
                                rot_relax=1.8))

species(name=u'C2H6(11)',
        atoms='C:2 H:6',
        thermo=(NASA([100.00, 1012.42],
                     [ 3.72239291E+00,  1.65083841E-03,  3.44175530E-05,
                      -3.76858229E-08,  1.24450657E-11, -1.15575901E+04,
                       4.68247999E+00]),
                NASA([1012.42, 5000.00],
                     [ 2.82848257E+00,  1.73040568E-02, -6.73334245E-06,
                       1.23742024E-09, -8.65676410E-14, -1.19978080E+04,
                       5.93811707E+00])),
        transport=gas_transport(geom='nonlinear',
                                diam=4.302,
                                well_depth=252.301,
                                rot_relax=1.5))

species(name=u'CH2O(12)',
        atoms='C:1 H:2 O:1',
        thermo=(NASA([100.00, 1070.44],
                     [ 4.12927802E+00, -4.08401318E-03,  2.03229341E-05,
                      -1.83524244E-08,  5.37975522E-12, -1.44294640E+04,
                       3.22418463E+00]),
                NASA([1070.44, 5000.00],
                     [ 2.21172442E+00,  7.94265679E-03, -3.34193053E-06,
                       6.28471401E-10, -4.40431446E-14, -1.42974456E+04,
                       1.13048985E+01])),
        transport=gas_transport(geom='nonlinear',
                                diam=3.59,
                                well_depth=498.002,
                                rot_relax=2.0))

species(name=u'CH3(13)',
        atoms='C:1 H:3',
        thermo=(NASA([100.00, 697.71],
                     [ 3.96043098E+00,  5.92939934E-04,  8.78575390E-06,
                      -9.88030557E-09,  3.63234580E-12,  1.64218818E+04,
                       3.39865631E-01]),
                NASA([697.71, 5000.00],
                     [ 3.09511187E+00,  5.55429874E-03, -1.88158855E-06,
                       3.13335012E-10, -2.05195181E-14,  1.65426192E+04,
                       4.20297876E+00])),
        transport=gas_transport(geom='nonlinear',
                                diam=3.8,
                                well_depth=144.001))

species(name=u'C3H8(14)',
        atoms='C:3 H:8',
        thermo=(NASA([100.00, 989.99],
                     [ 3.06336167E+00,  1.29214561E-02,  3.47032808E-05,
                      -4.70946154E-08,  1.71384141E-11, -1.43905789E+04,
                       1.07835592E+01]),
                NASA([989.99, 5000.00],
                     [ 5.60440043E+00,  2.19528785E-02, -8.22080610E-06,
                       1.50103993E-09, -1.05635358E-13, -1.58394038E+04,
                      -6.22623300E+00])),
        transport=gas_transport(geom='nonlinear',
                                diam=4.982,
                                well_depth=266.801,
                                rot_relax=1.0))

species(name=u'H(15)',
        atoms='H:1',
        thermo=(NASA([100.00, 3459.60],
                     [ 2.50000000E+00,  9.24384602E-15, -1.36779837E-17,
                       6.66184769E-21, -1.00106912E-24,  2.54742178E+04,
                      -4.44972896E-01]),
                NASA([3459.60, 5000.00],
                     [ 2.49999999E+00,  9.20455546E-12, -3.58608293E-15,
                       6.15198922E-19, -3.92041801E-23,  2.54742178E+04,
                      -4.44972842E-01])),
        transport=gas_transport(geom='atom',
                                diam=2.05,
                                well_depth=145.0))

species(name=u'C2H5(16)',
        atoms='C:2 H:5',
        thermo=(NASA([100.00, 1006.87],
                     [ 3.68746539E+00,  3.06889693E-03,  2.55873112E-05,
                      -2.94076576E-08,  9.94076215E-12,  1.31153648E+04,
                       6.96684864E+00]),
                NASA([1006.87, 5000.00],
                     [ 3.53781010E+00,  1.37311636E-02, -5.29564638E-06,
                       9.71482858E-10, -6.80289490E-14,  1.26351790E+04,
                       5.15566048E+00])),
        transport=gas_transport(geom='nonlinear',
                                diam=4.302,
                                well_depth=252.301,
                                rot_relax=1.5))

species(name=u'HCO(17)',
        atoms='C:1 H:1 O:1',
        thermo=(NASA([100.00, 1112.10],
                     [ 4.05936407E+00, -1.73846452E-03,  9.14981041E-06,
                      -8.01131526E-09,  2.25737264E-12,  3.84377617E+03,
                       3.32449702E+00]),
                NASA([1112.10, 5000.00],
                     [ 3.05136186E+00,  4.11706437E-03, -1.75586433E-06,
                       3.29302821E-10, -2.29174030E-14,  3.93007923E+03,
                       7.67464289E+00])),
        transport=gas_transport(geom='nonlinear',
                                diam=3.59,
                                well_depth=498.002))

species(name=u'CH3CHO(18)',
        atoms='C:2 H:4 O:1',
        thermo=(NASA([100.00, 1028.81],
                     [ 3.57991319E+00,  5.18996203E-03,  2.26893060E-05,
                      -2.73736957E-08,  9.28455869E-12, -2.13697369E+04,
                       8.96975431E+00]),
                NASA([1028.81, 5000.00],
                     [ 4.08568882E+00,  1.39060358E-02, -5.59365394E-06,
                       1.04608143E-09, -7.38729265E-14, -2.20391558E+04,
                       3.76773341E+00])),
        transport=gas_transport(geom='nonlinear',
                                diam=3.97,
                                well_depth=436.001,
                                rot_relax=2.0))

species(name=u'OH(19)',
        atoms='H:1 O:1',
        thermo=(NASA([100.00, 1145.75],
                     [ 3.51456768E+00,  2.92814373E-05, -5.32176582E-07,
                       1.01950588E-09, -3.85951152E-13,  3.41425421E+03,
                       2.10435015E+00]),
                NASA([1145.75, 5000.00],
                     [ 3.07194246E+00,  6.04011411E-04, -1.39759127E-08,
                      -2.13451563E-11,  2.48070095E-15,  3.57938557E+03,
                       4.57798500E+00])),
        transport=gas_transport(geom='linear',
                                diam=2.75,
                                well_depth=80.0))

species(name=u'C2H4(20)',
        atoms='C:2 H:4',
        thermo=(NASA([100.00, 979.36],
                     [ 3.97471606E+00, -4.75844285E-03,  4.16783770E-05,
                      -4.51392516E-08,  1.54224761E-11,  4.91540746E+03,
                       3.62430844E+00]),
                NASA([979.36, 5000.00],
                     [ 3.55660610E+00,  1.10627464E-02, -4.17019079E-06,
                       7.85586770E-10, -5.70060829E-14,  4.32046489E+03,
                       2.17719479E+00])),
        transport=gas_transport(geom='nonlinear',
                                diam=3.971,
                                well_depth=280.801,
                                rot_relax=1.5))

species(name=u'CH4(23)',
        atoms='C:1 H:4',
        thermo=(NASA([100.00, 1084.12],
                     [ 4.20541524E+00, -5.35557362E-03,  2.51123265E-05,
                      -2.13762843E-08,  5.97523937E-12, -1.01619433E+04,
                      -9.21279283E-01]),
                NASA([1084.12, 5000.00],
                     [ 9.08265721E-01,  1.14540858E-02, -4.57173828E-06,
                       8.29191671E-10, -5.66314895E-14, -9.71997444E+03,
                       1.39930944E+01])),
        transport=gas_transport(geom='nonlinear',
                                diam=3.746,
                                well_depth=141.4,
                                polar=2.6,
                                rot_relax=13.0))

species(name=u'O(32)',
        atoms='O:1',
        thermo=(NASA([100.00, 3459.60],
                     [ 2.50000000E+00,  9.24384602E-15, -1.36779837E-17,
                       6.66184769E-21, -1.00106912E-24,  2.92302441E+04,
                       5.12616427E+00]),
                NASA([3459.60, 5000.00],
                     [ 2.49999999E+00,  9.20455546E-12, -3.58608293E-15,
                       6.15198922E-19, -3.92041801E-23,  2.92302441E+04,
                       5.12616433E+00])),
        transport=gas_transport(geom='atom',
                                diam=2.75,
                                well_depth=80.0))

species(name=u'H3N2O(36)',
        atoms='H:3 N:2 O:1',
        thermo=(NASA([100.00, 1009.74],
                     [ 3.29852532E+00,  1.08121498E-02,  9.10172376E-06,
                      -1.84272182E-08,  7.37140570E-12,  1.63940664E+04,
                       1.00365122E+01]),
                NASA([1009.74, 5000.00],
                     [ 6.80550277E+00,  8.03016318E-03, -3.27054927E-06,
                       6.38494732E-10, -4.70150659E-14,  1.51194291E+04,
                      -9.72133915E+00])),
        transport=gas_transport(geom='nonlinear',
                                diam=5.118,
                                well_depth=237.1))

species(name=u'NH2NHJ(37)',
        atoms='H:3 N:2',
        thermo=(NASA([100.00, 955.84],
                     [ 3.91769749E+00, -3.83499692E-04,  1.77769207E-05,
                      -1.98116161E-08,  6.88420984E-12,  2.56658755E+04,
                       5.60355666E+00]),
                NASA([955.84, 5000.00],
                     [ 3.57337632E+00,  6.73344817E-03, -2.29914474E-06,
                       4.03441000E-10, -2.79698637E-14,  2.54724101E+04,
                       5.89281428E+00])),
        transport=gas_transport(geom='nonlinear',
                                diam=3.9,
                                well_depth=200.001,
                                rot_relax=1.0))

species(name=u'H3N2O2(38)',
        atoms='H:3 N:2 O:2',
        thermo=(NASA([100.00, 799.65],
                     [ 2.57595466E+00,  3.44013770E-02, -4.74837138E-05,
                       4.11562636E-08, -1.47131085E-11,  1.88309467E+04,
                       2.40441737E+01]),
                NASA([799.65, 5000.00],
                     [ 4.85729886E+00,  1.83788726E-02, -8.77924471E-06,
                       1.67757422E-09, -1.16213879E-13,  1.86135057E+04,
                       1.44698212E+01])),
        transport=gas_transport(geom='nonlinear',
                                diam=4.687,
                                well_depth=531.4))

species(name=u'NH2(D)(40)',
        atoms='H:2 N:1',
        thermo=(NASA([100.00, 1522.04],
                     [ 4.08973525E+00, -1.15510884E-03,  4.13794934E-06,
                      -2.48322261E-09,  4.84272026E-13,  2.11773523E+04,
                       2.89568823E-01]),
                NASA([1522.04, 5000.00],
                     [ 2.68015622E+00,  3.36841219E-03, -1.12727774E-06,
                       1.76554975E-10, -1.06785453E-14,  2.15115653E+04,
                       7.37040182E+00])),
        transport=gas_transport(geom='nonlinear',
                                diam=2.65,
                                well_depth=80.0,
                                polar=2.26,
                                rot_relax=4.0))

species(name=u'H3N2O2(42)',
        atoms='H:3 N:2 O:2',
        thermo=(NASA([100.00, 736.71],
                     [ 2.54417894E+00,  3.50358202E-02, -4.78208465E-05,
                       4.07175325E-08, -1.46650900E-11,  1.58385150E+04,
                       2.37781133E+01]),
                NASA([736.71, 5000.00],
                     [ 5.25803191E+00,  1.81716868E-02, -9.14903709E-06,
                       1.79956016E-09, -1.27186307E-13,  1.54964295E+04,
                       1.19067306E+01])),
        transport=gas_transport(geom='nonlinear',
                                diam=4.687,
                                well_depth=531.4))

species(name=u'NH2OJ(43)',
        atoms='H:2 N:1 O:1',
        thermo=(NASA([100.00, 1947.24],
                     [ 3.94550195E+00,  3.66316298E-03,  9.70090558E-07,
                      -1.35905648E-09,  2.83753328E-13,  6.92849715E+03,
                       7.87015318E+00]),
                NASA([1947.24, 5000.00],
                     [ 4.51735153E+00,  5.03671827E-03, -2.05095443E-06,
                       3.47294639E-10, -2.16023146E-14,  6.22267766E+03,
                       3.48971193E+00])),
        transport=gas_transport(geom='nonlinear',
                                diam=3.492,
                                well_depth=116.7,
                                rot_relax=1.0))

species(name=u'HNOHJ(44)',
        atoms='H:2 N:1 O:1',
        thermo=(NASA([100.00, 1079.42],
                     [ 3.99732749E+00, -1.80631727E-03,  1.86004380E-05,
                      -1.83339478E-08,  5.59477208E-12,  1.04532476E+04,
                       5.15948846E+00]),
                NASA([1079.42, 5000.00],
                     [ 3.06219956E+00,  7.89061210E-03, -3.53444693E-06,
                       6.85261358E-10, -4.88988535E-14,  1.02920881E+04,
                       8.06076899E+00])),
        transport=gas_transport(geom='nonlinear',
                                diam=3.492,
                                well_depth=116.7,
                                rot_relax=1.0))

species(name=u'NO2J(45)',
        atoms='N:1 O:2',
        thermo=(NASA([100.00, 1003.64],
                     [ 3.95016408E+00, -1.10874097E-03,  1.34095436E-05,
                      -1.53100307E-08,  5.30985898E-12,  2.97329576E+03,
                       6.19460333E+00]),
                NASA([1003.64, 5000.00],
                     [ 4.42989913E+00,  2.84572522E-03, -1.26844172E-06,
                       2.63832529E-10, -2.02198342E-14,  2.58153936E+03,
                       2.40646946E+00])),
        transport=gas_transport(geom='nonlinear',
                                diam=3.5,
                                well_depth=200.001,
                                rot_relax=1.0))

species(name=u'NO3J(46)',
        atoms='N:1 O:3',
        thermo=(NASA([100.00, 1140.53],
                     [ 3.24880406E+00,  1.41575638E-02, -1.14281216E-05,
                       3.51341345E-09, -1.65038110E-13,  8.23447969E+03,
                       9.23548054E+00]),
                NASA([1140.53, 5000.00],
                     [ 7.25357774E+00,  3.41501166E-03, -1.64348971E-06,
                       3.33096628E-10, -2.44738663E-14,  7.10615538E+03,
                      -1.15535577E+01])),
        transport=gas_transport(geom='nonlinear',
                                diam=4.2,
                                well_depth=400.0,
                                dipole=0.2,
                                rot_relax=1.0))

species(name=u'CH2OH(49)',
        atoms='C:1 H:3 O:1',
        thermo=(NASA([100.00, 1015.48],
                     [ 3.61905444E+00,  6.28695698E-03,  5.57453382E-06,
                      -9.77872604E-09,  3.69458574E-12, -3.32162396E+03,
                       6.61713040E+00]),
                NASA([1015.48, 5000.00],
                     [ 4.77201169E+00,  6.78473588E-03, -2.60442931E-06,
                       4.77565512E-10, -3.34609211E-14, -3.81561325E+03,
                      -2.42265753E-01])),
        transport=gas_transport(geom='nonlinear',
                                diam=3.69,
                                well_depth=417.002,
                                dipole=1.7,
                                rot_relax=2.0))

species(name=u'CH2(S)(50)',
        atoms='C:1 H:2',
        thermo=(NASA([100.00, 1442.36],
                     [ 4.10264362E+00, -1.44068286E-03,  5.45068647E-06,
                      -3.58001767E-09,  7.56191912E-13,  5.04005785E+04,
                      -4.11765347E-01]),
                NASA([1442.36, 5000.00],
                     [ 2.62647538E+00,  3.94762723E-03, -1.49924031E-06,
                       2.54538925E-10, -1.62955656E-14,  5.06917525E+04,
                       6.78378290E+00])),
        transport=gas_transport(geom='nonlinear',
                                diam=3.8,
                                well_depth=144.001))

species(name=u'NOJ(242)',
        atoms='N:1 O:1',
        thermo=(NASA([100.00, 1406.98],
                     [ 3.55718369E+00, -8.90593517E-04,  2.98559505E-06,
                      -2.08693970E-09,  4.65970604E-13,  9.95239674E+03,
                       4.55250679E+00]),
                NASA([1406.98, 5000.00],
                     [ 2.93794002E+00,  1.75430211E-03, -7.77035965E-07,
                       1.42658630E-10, -9.57892926E-15,  1.00391110E+04,
                       7.44035185E+00])),
        transport=gas_transport(geom='linear',
                                diam=3.621,
                                well_depth=97.53,
                                polar=1.76,
                                rot_relax=4.0))

species(name=u'HNO2(246)',
        atoms='H:1 N:1 O:2',
        thermo=(NASA([100.00, 1007.87],
                     [ 3.98438946E+00, -2.90729474E-03,  2.42181540E-05,
                      -2.60193794E-08,  8.72143447E-12, -6.45816973E+03,
                       6.63656104E+00]),
                NASA([1007.87, 5000.00],
                     [ 3.92432829E+00,  6.24038821E-03, -2.65591875E-06,
                       5.27590445E-10, -3.90801102E-14, -6.89856532E+03,
                       4.68194108E+00])),
        transport=gas_transport(geom='nonlinear',
                                diam=3.95,
                                well_depth=350.0,
                                dipole=1.639,
                                rot_relax=1.0))

species(name=u'HONO(248)',
        atoms='H:1 N:1 O:2',
        thermo=(NASA([100.00, 1030.67],
                     [ 3.58324186E+00,  6.77956384E-03,  2.80768032E-06,
                      -7.92846718E-09,  3.26001927E-12, -1.05229890E+04,
                       7.64225468E+00]),
                NASA([1030.67, 5000.00],
                     [ 5.61861517E+00,  4.45477237E-03, -1.92172105E-06,
                       3.78240265E-10, -2.77201606E-14, -1.12386295E+04,
                      -3.67508266E+00])),
        transport=gas_transport(geom='nonlinear',
                                diam=3.95,
                                well_depth=350.0,
                                dipole=1.639,
                                rot_relax=1.0))

species(name=u'ONOOH(297)',
        atoms='H:1 N:1 O:3',
        thermo=(NASA([100.00, 768.16],
                     [ 2.96303372E+00,  2.47517645E-02, -3.57816260E-05,
                       2.80287401E-08, -8.89431332E-12, -3.02582368E+03,
                       1.22924605E+01]),
                NASA([768.16, 5000.00],
                     [ 6.03640292E+00,  8.74633739E-03, -4.52435450E-06,
                       8.98581112E-10, -6.38218245E-14, -3.49794345E+03,
                      -1.72383293E+00])),
        transport=gas_transport(geom='nonlinear',
                                diam=4.687,
                                well_depth=531.4))

species(name=u'N2O4(305)',
        atoms='N:2 O:4',
        thermo=(NASA([100.00, 965.55],
                     [ 2.63108260E+00,  3.21362065E-02, -3.85876241E-05,