units(length='cm', time='s', quantity='mol', act_energy='kcal/mol')

ideal_gas(name='gas',
          elements="H D T C Ci O Oi N Ne Ar He Si S Cl I X",
          species="""Ne          NH3(2)      NH2OH(3)    HNO3(4)
                     CH3OH(5)    H2O(6)      N2(7)       O2(8)
                     NO2(9)      NO(10)      N2O(11)     CO2(12)
                     H2(13)      CO(14)      CH4(15)     C2H6(16)
                     CH2O(17)    CH3(18)     C3H8(19)    H(20)
                     C2H5(21)    HCO(22)     CH3CHO(23)  OH(24)
                     C2H4(25)    CH2(S)(43)  CH2OH(45)   CH3O(46)
                     NH2(85)     H2NO(88)    HNOH(93)    NO3(95)
                     H2NO3(239)""",
          reactions='gas-*',
          transport='Mix',
          initial_state=state(temperature=300.0, pressure=OneAtm))

ideal_interface(name='surface1',
                elements="H D T C Ci O Oi N Ne Ar He Si S Cl I X",
                species="""X(1)        HX(26)      OX(27)      CH3X(28)
                          HOX(29)     H2OX(30)    CO2X(31)    OCX(32)
                          CX(33)      CH2X(34)    CHX(35)     H2NX(201)
                          H3NX(202)   H2NOX(203)  H2NOX(204)  H3NOX(205)
                          NO2X(206)   NO3X(207)   HNO3X(208)  CH3OX(209)
                          CH3OX(210)  CH4OX(211)""",
                site_density=2.587e-09,
                phases="gas",
          reactions='surface1-*',
                initial_state=state(temperature=300.0, pressure=OneAtm))

#-------------------------------------------------------------------------------
# Element data
#-------------------------------------------------------------------------------

element(symbol='Ci', atomic_mass=13.003)
element(symbol='D', atomic_mass=2.014)
element(symbol='Oi', atomic_mass=18.0)
element(symbol='T', atomic_mass=3.016)
element(symbol='X', atomic_mass=195.083)
#-------------------------------------------------------------------------------
# Species data
#-------------------------------------------------------------------------------

species(name='Ne',
        atoms='Ne:1',
        thermo=(NASA([200.00, 1000.00],
                     [ 2.50000000E+00,  0.00000000E+00,  0.00000000E+00,
                       0.00000000E+00,  0.00000000E+00, -7.45375000E+02,
                       3.35532000E+00]),
                NASA([1000.00, 6000.00],
                     [ 2.50000000E+00,  0.00000000E+00,  0.00000000E+00,
                       0.00000000E+00,  0.00000000E+00, -7.45375000E+02,
                       3.35532000E+00])),
        transport=gas_transport(geom='atom',
                                diam=3.758,
                                well_depth=148.6))

species(name='NH3(2)',
        atoms='H:3 N:1',
        thermo=(NASA([100.00, 993.31],
                     [ 4.09068871E+00, -2.07164892E-03,  1.14752579E-05,
                      -9.47505886E-09,  2.61224588E-12, -6.69036407E+03,
                       2.22495594E-02]),
                NASA([993.31, 5000.00],
                     [ 2.12301674E+00,  6.45659621E-03, -2.31618853E-06,
                       3.93870953E-10, -2.58109080E-14, -6.32928697E+03,
                       9.35179499E+00])),
        transport=gas_transport(geom='nonlinear',
                                diam=2.92,
                                well_depth=481.0,
                                dipole=1.47,
                                rot_relax=10.0))

species(name='NH2OH(3)',
        atoms='H:3 N:1 O:1',
        thermo=(NASA([100.00, 1003.06],
                     [ 3.82098811E+00, -4.71559675E-04,  2.62901891E-05,
                      -3.05244225E-08,  1.06029443E-11, -6.16559029E+03,
                       5.65844221E+00]),
                NASA([1003.06, 5000.00],
                     [ 4.72264609E+00,  7.57953581E-03, -3.16643429E-06,
                       6.29231022E-10, -4.68390166E-14, -6.93237827E+03,
                      -1.61487959E+00])),
        transport=gas_transport(geom='nonlinear',
                                diam=3.492,
                                well_depth=116.7,
                                rot_relax=1.0))

species(name='HNO3(4)',
        atoms='H:1 N:1 O:3',
        thermo=(NASA([100.00, 964.74],
                     [ 3.37979722E+00,  7.07791351E-03,  1.89739812E-05,
                      -3.13218649E-08,  1.27351678E-11, -1.74102620E+04,
                       1.01297081E+01]),
                NASA([964.74, 5000.00],
                     [ 8.17854972E+00,  3.61026767E-03, -1.17844592E-06,
                       2.55813290E-10, -2.19834015E-14, -1.91007121E+04,
                      -1.68116524E+01])),
        transport=gas_transport(geom='nonlinear',
                                diam=4.2,
                                well_depth=400.0,
                                dipole=0.2,
                                rot_relax=1.0))

species(name='CH3OH(5)',
        atoms='C:1 H:4 O:1',
        thermo=(NASA([100.00, 1035.75],
                     [ 3.84006221E+00,  1.38241909E-03,  1.91667221E-05,
                      -2.01568699E-08,  6.39102422E-12, -2.56083087E+04,
                       5.90978110E+00]),
                NASA([1035.75, 5000.00],
                     [ 2.79184262E+00,  1.15827858E-02, -4.51551962E-06,
                       8.21206786E-10, -5.67063316E-14, -2.57211672E+04,
                       9.41061788E+00])),
        transport=gas_transport(geom='nonlinear',
                                diam=3.626,
                                well_depth=481.8,
                                rot_relax=1.0))

species(name='H2O(6)',
        atoms='H:2 O:1',
        thermo=(NASA([100.00, 1130.25],
                     [ 4.05763720E+00, -7.87951343E-04,  2.90882564E-06,
                      -1.47524910E-09,  2.12866372E-13, -3.02815867E+04,
                      -3.11369025E-01]),
                NASA([1130.25, 5000.00],
                     [ 2.84324104E+00,  2.75110073E-03, -7.81040007E-07,
                       1.07245603E-10, -5.79408217E-15, -2.99586086E+04,
                       5.91047337E+00])),
        transport=gas_transport(geom='nonlinear',
                                diam=2.641,
                                well_depth=809.102,
                                polar=1.76,
                                rot_relax=4.0))

species(name='N2(7)',
        atoms='N:2',
        thermo=(NASA([200.00, 1000.00],
                     [ 3.53101000E+00, -1.23661000E-04, -5.02999000E-07,
                       2.43531000E-09, -1.40881000E-12, -1.04698000E+03,
                       2.96747000E+00]),
                NASA([1000.00, 6000.00],
                     [ 2.95258000E+00,  1.39690000E-03, -4.92632000E-07,
                       7.86010000E-11, -4.60755000E-15, -9.23949000E+02,
                       5.87189000E+00])),
        transport=gas_transport(geom='linear',
                                diam=3.621,
                                well_depth=97.53,
                                polar=1.76,
                                rot_relax=4.0))

species(name='O2(8)',
        atoms='O:2',
        thermo=(NASA([100.00, 1074.56],
                     [ 3.53732118E+00, -1.21570207E-03,  5.31615377E-06,
                      -4.89440387E-09,  1.45843816E-12, -1.03858843E+03,
                       4.68368631E+00]),
                NASA([1074.56, 5000.00],
                     [ 3.15382772E+00,  1.67803228E-03, -7.69967779E-07,
                       1.51273960E-10, -1.08781182E-14, -1.04082030E+03,
                       6.16751919E+00])),
        transport=gas_transport(geom='linear',
                                diam=3.467,
                                well_depth=106.7))

species(name='NO2(9)',
        atoms='N:1 O:2',
        thermo=(NASA([100.00, 1003.63],
                     [ 3.95017408E+00, -1.10886044E-03,  1.34099668E-05,
                      -1.53105837E-08,  5.31009534E-12,  2.97329533E+03,
                       6.19456759E+00]),
                NASA([1003.63, 5000.00],
                     [ 4.42985754E+00,  2.84579572E-03, -1.26848228E-06,
                       2.63842092E-10, -2.02206262E-14,  2.58155693E+03,
                       2.40670381E+00])),
        transport=gas_transport(geom='nonlinear',
                                diam=3.852,
                                well_depth=333.59,
                                dipole=0.4,
                                rot_relax=1.0))

species(name='NO(10)',
        atoms='N:1 O:1',
        thermo=(NASA([100.00, 1407.00],
                     [ 3.55718287E+00, -8.90585197E-04,  2.98557151E-06,
                      -2.08691596E-09,  4.65962924E-13,  9.95239678E+03,
                       4.55250983E+00]),
                NASA([1407.00, 5000.00],
                     [ 2.93795514E+00,  1.75427954E-03, -7.77024161E-07,
                       1.42656040E-10, -9.57872631E-15,  1.00391035E+04,
                       7.44026449E+00])),
        transport=gas_transport(geom='linear',
                                diam=3.339,
                                well_depth=139.32,
                                dipole=0.2,
                                polar=1.76,
                                rot_relax=4.0))

species(name='N2O(11)',
        atoms='N:2 O:1',
        thermo=(NASA([100.00, 1026.61],
                     [ 3.22183369E+00,  4.41469432E-03,  2.54409227E-06,
                      -6.06073232E-09,  2.45092030E-12,  8.76576974E+03,
                       6.72928681E+00]),
                NASA([1026.61, 5000.00],
                     [ 4.61742784E+00,  3.00864963E-03, -1.29224172E-06,
                       2.55914757E-10, -1.88714262E-14,  8.26677203E+03,
                      -1.07502592E+00])),
        transport=gas_transport(geom='linear',
                                diam=3.828,
                                well_depth=232.4,
                                dipole=0.2,
                                rot_relax=1.0))

species(name='CO2(12)',
        atoms='C:1 O:2',
        thermo=(NASA([100.00, 978.22],
                     [ 3.28083821E+00,  2.50193291E-03,  8.08164577E-06,
                      -1.20506695E-08,  4.66526645E-12, -4.84008301E+04,
                       6.00083693E+00]),
                NASA([978.22, 5000.00],
                     [ 4.67429780E+00,  2.60958835E-03, -9.85659769E-07,
                       1.95706729E-10, -1.49830320E-14, -4.89512267E+04,
                      -2.11090702E+00])),
        transport=gas_transport(geom='linear',
                                diam=3.941,
                                well_depth=195.201))

species(name='H2(13)',
        atoms='H:2',
        thermo=(NASA([100.00, 1959.08],
                     [ 3.43536411E+00,  2.12710383E-04, -2.78625110E-07,
                       3.40267219E-10, -7.76032129E-14, -1.03135984E+03,
                      -3.90841731E+00]),
                NASA([1959.08, 5000.00],
                     [ 2.78816619E+00,  5.87640475E-04,  1.59010635E-07,
                      -5.52739465E-11,  4.34311304E-15, -5.96144481E+02,
                       1.12730527E-01])),
        transport=gas_transport(geom='linear',
                                diam=2.833,
                                well_depth=59.7))

species(name='CO(14)',
        atoms='C:1 O:1',
        thermo=(NASA([100.00, 1571.64],
                     [ 3.56837982E+00, -8.52124063E-04,  2.48917390E-06,
                      -1.56330672E-09,  3.13594213E-13, -1.42842549E+04,
                       3.57912239E+00]),
                NASA([1571.64, 5000.00],
                     [ 2.91306987E+00,  1.64657389E-03, -6.88612820E-07,
                       1.21036930E-10, -7.84014743E-15, -1.41808862E+04,
                       6.71043900E+00])),
        transport=gas_transport(geom='linear',
                                diam=3.69,
                                well_depth=91.7,
                                polar=1.76,
                                rot_relax=4.0))

species(name='CH4(15)',
        atoms='C:1 H:4',
        thermo=(NASA([100.00, 1084.15],
                     [ 4.20540072E+00, -5.35540640E-03,  2.51117636E-05,
                      -2.13755910E-08,  5.97496145E-12, -1.01619427E+04,
                      -9.21226951E-01]),
                NASA([1084.15, 5000.00],
                     [ 9.08349401E-01,  1.14539479E-02, -4.57166053E-06,
                       8.29173612E-10, -5.66300105E-14, -9.72001110E+03,
                       1.39926204E+01])),
        transport=gas_transport(geom='nonlinear',
                                diam=3.746,
                                well_depth=141.4,
                                polar=2.6,
                                rot_relax=13.0))

species(name='C2H6(16)',
        atoms='C:2 H:6',
        thermo=(NASA([100.00, 1012.42],
                     [ 3.72239308E+00,  1.65083640E-03,  3.44175601E-05,
                      -3.76858321E-08,  1.24450696E-11, -1.15575902E+04,
                       4.68247939E+00]),
                NASA([1012.42, 5000.00],
                     [ 2.82848184E+00,  1.73040581E-02, -6.73334315E-06,
                       1.23742041E-09, -8.65676548E-14, -1.19978077E+04,
                       5.93812118E+00])),
        transport=gas_transport(geom='nonlinear',
                                diam=4.302,
                                well_depth=252.3,
                                rot_relax=1.5))

species(name='CH2O(17)',
        atoms='C:1 H:2 O:1',
        thermo=(NASA([100.00, 1070.44],
                     [ 4.12927829E+00, -4.08401633E-03,  2.03229448E-05,
                      -1.83524377E-08,  5.37976060E-12, -1.44294640E+04,
                       3.22418365E+00]),
                NASA([1070.44, 5000.00],
                     [ 2.21172293E+00,  7.94265924E-03, -3.34193191E-06,
                       6.28471724E-10, -4.40431711E-14, -1.42974450E+04,
                       1.13049069E+01])),
        transport=gas_transport(geom='nonlinear',
                                diam=3.59,
                                well_depth=498.0,
                                rot_relax=2.0))

species(name='CH3(18)',
        atoms='C:1 H:3',
        thermo=(NASA([100.00, 697.63],
                     [ 3.96043178E+00,  5.92930195E-04,  8.78578951E-06,
                      -9.88035524E-09,  3.63236942E-12,  1.64218817E+04,
                       3.39862787E-01]),
                NASA([697.63, 5000.00],
                     [ 3.09511262E+00,  5.55429714E-03, -1.88158748E-06,
                       3.13334732E-10, -2.05194931E-14,  1.65426190E+04,
                       4.20297474E+00])),
        transport=gas_transport(geom='nonlinear',
                                diam=3.8,
                                well_depth=144.0))

species(name='C3H8(19)',
        atoms='C:3 H:8',
        thermo=(NASA([100.00, 989.99],
                     [ 3.06337235E+00,  1.29213276E-02,  3.47037401E-05,
                      -4.70952219E-08,  1.71386763E-11, -1.43905793E+04,
                       1.07835211E+01]),
                NASA([989.99, 5000.00],
                     [ 5.60435845E+00,  2.19529500E-02, -8.22084738E-06,
                       1.50104968E-09, -1.05636167E-13, -1.58393862E+04,
                      -6.22599672E+00])),
        transport=gas_transport(geom='nonlinear',
                                diam=4.982,
                                well_depth=266.801,
                                rot_relax=1.0))

species(name='H(20)',
        atoms='H:1',
        thermo=(NASA([100.00, 4383.16],
                     [ 2.50000000E+00, -2.38914167E-13,  3.12709494E-16,
                      -1.33367320E-19,  1.74989654E-23,  2.54742178E+04,
                      -4.44972897E-01]),
                NASA([4383.16, 5000.00],
                     [ 2.50003447E+00, -3.04996987E-08,  1.01101187E-11,
                      -1.48796738E-15,  8.20356170E-20,  2.54741866E+04,
                      -4.45191184E-01])),
        transport=gas_transport(geom='atom',
                                diam=2.05,
                                well_depth=145.0))

species(name='C2H5(21)',
        atoms='C:2 H:5',
        thermo=(NASA([100.00, 1006.87],
                     [ 3.68745380E+00,  3.06903510E-03,  2.55868228E-05,
                      -2.94070210E-08,  9.94049079E-12,  1.31153653E+04,
                       6.96689006E+00]),
                NASA([1006.87, 5000.00],
                     [ 3.53785893E+00,  1.37310809E-02, -5.29559886E-06,
                       9.71471661E-10, -6.80280220E-14,  1.26351584E+04,
                       5.15538530E+00])),
        transport=gas_transport(geom='nonlinear',
                                diam=4.302,
                                well_depth=252.3,
                                rot_relax=1.5))

species(name='HCO(22)',
        atoms='C:1 H:1 O:1',
        thermo=(NASA([100.00, 1112.10],
                     [ 4.05936498E+00, -1.73847479E-03,  9.14984441E-06,
                      -8.01135632E-09,  2.25738876E-12,  3.84377613E+03,
                       3.32449376E+00]),
                NASA([1112.10, 5000.00],
                     [ 3.05135606E+00,  4.11707384E-03, -1.75586963E-06,
                       3.29304046E-10, -2.29175030E-14,  3.93008180E+03,
                       7.67467582E+00])),
        transport=gas_transport(geom='nonlinear',
                                diam=3.59,
                                well_depth=498.0))

species(name='CH3CHO(23)',
        atoms='C:2 H:4 O:1',
        thermo=(NASA([100.00, 1028.81],
                     [ 3.57992397E+00,  5.18983474E-03,  2.26897496E-05,
                      -2.73742644E-08,  9.28479682E-12, -2.13697374E+04,
                       8.96971567E+00]),
                NASA([1028.81, 5000.00],
                     [ 4.08563906E+00,  1.39061194E-02, -5.59370172E-06,
                       1.04609264E-09, -7.38738518E-14, -2.20391345E+04,
                       3.76801423E+00])),
        transport=gas_transport(geom='nonlinear',
                                diam=3.97,
                                well_depth=436.0,
                                rot_relax=2.0))

species(name='OH(24)',
        atoms='H:1 O:1',
        thermo=(NASA([100.00, 1145.76],
                     [ 3.51456841E+00,  2.92731942E-05, -5.32149835E-07,
                       1.01947431E-09, -3.85939061E-13,  3.41425418E+03,
                       2.10434749E+00]),
                NASA([1145.76, 5000.00],
                     [ 3.07193709E+00,  6.04020086E-04, -1.39807303E-08,
                      -2.13440498E-11,  2.48061111E-15,  3.57938799E+03,
                       4.57801556E+00])),
        transport=gas_transport(geom='linear',
                                diam=2.75,
                                well_depth=80.0))

species(name='C2H4(25)',
        atoms='C:2 H:4',
        thermo=(NASA([100.00, 979.37],
                     [ 3.97469045E+00, -4.75813325E-03,  4.16772624E-05,
                      -4.51377676E-08,  1.54218287E-11,  4.91540855E+03,
                       3.62439976E+00]),
                NASA([979.37, 5000.00],
                     [ 3.55670229E+00,  1.10625819E-02, -4.17009559E-06,
                       7.85564219E-10, -5.70042086E-14,  4.32042473E+03,
                       2.17665377E+00])),
        transport=gas_transport(geom='nonlinear',
                                diam=3.971,
                                well_depth=280.8,
                                rot_relax=1.5))

species(name='CH2(S)(43)',
        atoms='C:1 H:2',
        thermo=(NASA([100.00, 1442.37],
                     [ 4.10264295E+00, -1.44067613E-03,  5.45066773E-06,
                      -3.57999913E-09,  7.56186033E-13,  5.04005785E+04,
                      -4.11762858E-01]),
                NASA([1442.37, 5000.00],
                     [ 2.62648932E+00,  3.94760664E-03, -1.49922962E-06,
                       2.54536593E-10, -1.62953838E-14,  5.06917455E+04,
                       6.78370224E+00])),
        transport=gas_transport(geom='nonlinear',
                                diam=3.8,
                                well_depth=144.0))

species(name='CH2OH(45)',
        atoms='C:1 H:3 O:1',
        thermo=(NASA([100.00, 1015.48],
                     [ 3.61905813E+00,  6.28691312E-03,  5.57468797E-06,
                      -9.77892565E-09,  3.69467023E-12, -3.32162412E+03,
                       6.61711719E+00]),
                NASA([1015.48, 5000.00],
                     [ 4.77199556E+00,  6.78476310E-03, -2.60444492E-06,
                       4.77569185E-10, -3.34612248E-14, -3.81560640E+03,
                      -2.42174819E-01])),
        transport=gas_transport(geom='nonlinear',
                                diam=3.69,
                                well_depth=417.0,
                                dipole=1.7,
                                rot_relax=2.0))

species(name='CH3O(46)',
        atoms='C:1 H:3 O:1',
        thermo=(NASA([100.00, 985.46],
                     [ 3.95612920E+00, -3.06310406E-03,  3.06883846E-05,
                      -3.34123321E-08,  1.13928817E-11,  1.19253617E+03,
                       4.69435378E+00]),
                NASA([985.46, 5000.00],
                     [ 3.74492014E+00,  8.52627590E-03, -3.28790848E-06,
                       6.23964954E-10, -4.53276472E-14,  7.13053773E+02,
                       3.06622078E+00])),
        transport=gas_transport(geom='nonlinear',
                                diam=3.69,
                                well_depth=417.0,
                                dipole=1.7,
                                rot_relax=2.0))

species(name='NH2(85)',
        atoms='H:2 N:1',
        thermo=(NASA([100.00, 1522.06],
                     [ 4.08973448E+00, -1.15510138E-03,  4.13792931E-06,
                      -2.48320358E-09,  4.84266256E-13,  2.11773523E+04,
                       2.89571669E-01]),
                NASA([1522.06, 5000.00],
                     [ 2.68017679E+00,  3.36838246E-03, -1.12726257E-06,
                       1.76551709E-10, -1.06782934E-14,  2.15115546E+04,
                       7.37028230E+00])),
        transport=gas_transport(geom='nonlinear',
                                diam=2.65,
                                well_depth=80.0,
                                polar=2.26,
                                rot_relax=4.0))

species(name='H2NO(88)',
        atoms='H:2 N:1 O:1',
        thermo=(NASA([100.00, 1947.24],
                     [ 3.94550180E+00,  3.66316432E-03,  9.70087511E-07,
                      -1.35905408E-09,  2.83752730E-13,  6.92849716E+03,
                       7.87015377E+00]),
                NASA([1947.24, 5000.00],
                     [ 4.51736704E+00,  5.03669808E-03, -2.05094495E-06,
                       3.47292734E-10, -2.16021755E-14,  6.22266854E+03,
                       3.48962006E+00])),
        transport=gas_transport(geom='nonlinear',
                                diam=3.492,
                                well_depth=116.7,
                                rot_relax=1.0))

species(name='HNOH(93)',
        atoms='H:2 N:1 O:1',
        thermo=(NASA([100.00, 1079.43],
                     [ 3.99732167E+00, -1.80625008E-03,  1.86002112E-05,
                      -1.83336675E-08,  5.59465932E-12,  1.04532478E+04,
                       5.15950943E+00]),
                NASA([1079.43, 5000.00],
                     [ 3.06223249E+00,  7.89055774E-03, -3.53441625E-06,
                       6.85254224E-10, -4.88982689E-14,  1.02920737E+04,
                       8.06058248E+00])),
        transport=gas_transport(geom='nonlinear',
                                diam=3.492,
                                well_depth=116.7,
                                rot_relax=1.0))

species(name='NO3(95)',
        atoms='N:1 O:3',
        thermo=(NASA([100.00, 1140.52],
                     [ 3.24880496E+00,  1.41575537E-02, -1.14280886E-05,
                       3.51337433E-09, -1.65023072E-13,  8.23447965E+03,
                       9.23547727E+00]),
                NASA([1140.52, 5000.00],
                     [ 7.25357127E+00,  3.41502212E-03, -1.64349552E-06,
                       3.33097965E-10, -2.44739750E-14,  7.10615828E+03,
                      -1.15535209E+01])),
        transport=gas_transport(geom='nonlinear',
                                diam=4.2,
                                well_depth=400.0,
                                dipole=0.2,
                                rot_relax=1.0))

species(name='H2NO3(239)',
        atoms='H:2 N:1 O:3',
        thermo=(NASA([100.00, 711.09],
                     [ 2.90868914E+00,  2.68643201E-02, -4.02732531E-05,
                       3.78785524E-08, -1.49723301E-11,  9.17614779E+03,
                       2.98716557E+01]),
                NASA([711.09, 5000.00],
                     [ 4.54299483E+00,  1.46287361E-02, -8.04539667E-06,
                       1.64728580E-09, -1.19060950E-13,  9.02063765E+03,
                       2.30851458E+01])),
        transport=gas_transport(geom='nonlinear',
                                diam=4.687,
                                well_depth=531.4))

species(name='X(1)',
        atoms='X:1',
        thermo=(NASA([100.00, 1554.81],
                     [ 7.10134880E-03, -4.25615041E-05,  8.98521156E-08,
                      -7.80182565E-11,  2.32462166E-14, -8.76099414E-01,
                      -3.11209498E-02]),
                NASA([1554.81, 5000.00],
                     [ 1.60301287E-01, -2.52237396E-04,  1.14182282E-07,
                      -1.21473809E-11,  3.85806589E-16, -7.08108147E+01,
                      -9.09535600E-01])))

species(name='HX(26)',
        atoms='H:1 X:1',
        thermo=(NASA([100.00, 952.91],
                     [-3.80957846E-01,  5.47219393E-03,  2.60946928E-06,
                      -9.65008412E-09,  4.63967474E-12, -2.48370421E+03,
                       1.01722845E+00]),
                NASA([952.91, 5000.00],
                     [ 2.80337105E+00, -5.41002993E-04,  4.99482316E-07,
                      -7.54902555E-11,  3.06721398E-15, -3.42444280E+03,
                      -1.59435356E+01])))

species(name='OX(27)',
        atoms='O:1 X:1',
        thermo=(NASA([100.00, 888.25],
                     [-7.59018036E-01,  1.89869128E-02, -3.82476163E-05,
                       3.43561864E-08, -1.13976013E-11, -2.35149535E+04,
                       1.76019150E+00]),
                NASA([888.25, 5000.00],
                     [ 1.89894867E+00,  2.03293217E-03, -1.19975265E-06,
                       2.32677501E-10, -1.53505623E-14, -2.37905047E+04,
                      -9.64111055E+00])))

species(name='CH3X(28)',
        atoms='C:1 H:3 X:1',
        thermo=(NASA([100.00, 848.30],
                     [-1.21090611E+00,  2.92390831E-02, -4.49011672E-05,
                       3.86010689E-08, -1.30361474E-11, -6.77931950E+03,
                       6.80940157E+00]),
                NASA([848.30, 5000.00],
                     [ 1.62291116E+00,  1.12987225E-02, -5.08316650E-06,
                       9.46832954E-10, -6.42885005E-14, -7.09538539E+03,
                      -5.42502394E+00])))

species(name='HOX(29)',
        atoms='H:1 O:1 X:1',
        thermo=(NASA([100.00, 914.54],
                     [-1.29521674E+00,  3.36486200E-02, -7.07755341E-05,
                       6.54367721E-08, -2.19434475E-11, -2.24850601E+04,
                       4.37653089E+00]),
                NASA([914.54, 5000.00],
                     [ 2.43538338E+00,  4.64605477E-03, -2.39990873E-06,
                       4.26359701E-10, -2.60614408E-14, -2.26369046E+04,
                      -1.03877722E+01])))

species(name='H2OX(30)',
        atoms='H:2 O:1 X:1',
        thermo=(NASA([100.00, 912.85],
                     [-1.34340519E+00,  3.66696015E-02, -7.99482515E-05,
                       7.74127762E-08, -2.68666529E-11, -3.23490303E+04,
                       1.10237802E+01]),
                NASA([912.85, 5000.00],
                     [ 1.12159987E+00,  8.16637387E-03, -4.02356932E-06,
                       7.20418131E-10, -4.51440018E-14, -3.20615278E+04,
                       3.39609648E+00])))

species(name='CO2X(31)',
        atoms='C:1 O:2 X:1',
        thermo=(NASA([100.00, 953.58],
                     [ 3.09270665E+00,  5.29257511E-03,  8.99525075E-06,
                      -1.67139901E-08,  7.04956887E-12, -4.52128361E+04,
                      -5.10062523E+00]),
                NASA([953.58, 5000.00],
                     [ 5.99797425E+00,  2.27495290E-03, -6.81151398E-07,
                       1.34446413E-10, -1.11521352E-14, -4.61838021E+04,
                      -2.11646569E+01])))

species(name='OCX(32)',
        atoms='C:1 O:1 X:1',
        thermo=(NASA([100.00, 891.32],
                     [-1.38218471E+00,  3.75310911E-02, -8.29779551E-05,
                       8.09731714E-08, -2.85485057E-11, -3.58357948E+04,
                       4.35463035E+00]),
                NASA([891.32, 5000.00],
                     [ 1.38101738E+00,  8.05699435E-03, -4.64297360E-06,
                       8.91142754E-10, -5.90024841E-14, -3.56501666E+04,
                      -4.85379925E+00])))

species(name='CX(33)',
        atoms='C:1 X:1',
        thermo=(NASA([100.00, 1401.12],
                     [-6.04857256E-01,  1.10908355E-02, -1.34369676E-05,
                       7.18239043E-09, -1.40685313E-12,  3.60840654E+03,
                       1.48480345E+00]),
                NASA([1401.12, 5000.00],
                     [ 3.08076591E+00, -6.87473269E-04,  5.17593613E-07,
                      -9.73030868E-11,  6.24250814E-15,  2.69892891E+03,
                      -1.70991710E+01])))

species(name='CH2X(34)',
        atoms='C:1 H:2 X:1',
        thermo=(NASA([100.00, 1199.84],
                     [-1.02006572E+00,  2.03778530E-02, -2.17291021E-05,