units(length='cm', time='s', quantity='mol', act_energy='kcal/mol')

ideal_gas(name='gas',
          elements="H D T C Ci O Oi N Ne Ar He Si S Cl I X",
          species="""Ne          H4N2O2(2)   NH2OH(3)    HNO3(4)
                     CH3OH(5)    H2O(6)      N2(7)       O2(8)
                     NO2(9)      NO(10)      N2O(11)     CO2(12)
                     H2(13)      CO(14)      CH4(15)     C2H6(16)
                     CH2O(17)    CH3(18)     C3H8(19)    H(20)
                     C2H5(21)    HCO(22)     CH3CHO(23)  OH(24)
                     C2H4(25)    O(36)       HO2(39)     H2O2(40)
                     CH2OH(45)   CH3O(46)    NH2(85)     NH3(86)
                     NH(87)      HNO(88)     H2NO(89)    HONO(93)
                     HNOH(94)    HNO2(95)    NO3(96)     N2H2(97)
                     N2H3(99)    N2H4(100)   H3N2O(193)  S(194)
                     H2NO2(195)  S(196)      S(197)      H2NO3(252)
                     HNO2(253)   ONCDO(272)  H2NO4(293)  HNO(501)
                     H2N2O(502)  H2N2O(503)  NNDO(506)   H3N2O(507)
                     H3N2O(508)  H4N2O(514)  NNO(515)    S(566)
                     H2N2(575)   S(650)      H2NO5(674)  H2N2(742)
                     NH3NH(748)  H2NO2(813)  OONDN(830)  S(831)
                     H3NO3(918)  ONCO(1062)  S(1116)     NOO(1135)
                     NOON(1278)  S(1755)     S(2088)     S(2121)
                     S(2395)     S(2397)""",
          reactions='gas-*',
          transport='Mix',
          initial_state=state(temperature=300.0, pressure=OneAtm))

ideal_interface(name='surface1',
                elements="H D T C Ci O Oi N Ne Ar He Si S Cl I X",
                species="""X(1)        HX(26)      OX(27)      CH3X(28)
                          HOX(29)     H2OX(30)    CO2X(31)    OCX(32)
                          CX(33)      CH2X(34)    CHX(35)     SX(207)
                          HO2X(208)   H3N2X(209)  SX(210)     SX(211)
                          H2NX(212)   SX(213)     SX(214)     SX(215)
                          H2NOX(216)  H2NOX(217)  H3NOX(218)  NO2X(219)
                          NO3X(220)   HNO3X(221)  CH3OX(222)  CH3OX(223)
                          CH4OX(224)  NO2X(226)   NO2X(227)   HOX(248)
                          SX(509)     SX(510)     SX(511)     HNOX(512)
                          SX(513)     SX(578)     O2X(672)    HO2X(673)
                          H2N2X(744)  H3N2X(745)  H2N2X(746)  H3N2X(747)
                          SX(816)     SX(817)     SX(836)     SX(837)
                          SX(838)     SX(916)     SX(917)     HNO2X(960)
                          SX(961)     SX(978)     SX(982)     SX(1003)
                          HNX(1006)   HNOX(1007)  SX(1064)    SX(1073)
                          SX(1077)    SX(1080)    H2NX(1111)  SX(1144)
                          SX(1211)    SX(1279)    SX(1280)    SX(1422)
                          NO3X(1503)  SX(1602)    SX(1676)    SX(1942)
                          SX(3118)    SX(3542)    SX(5594)""",
                site_density=2.9e-09,
                phases="gas",
          reactions='surface1-*',
                initial_state=state(temperature=300.0, pressure=OneAtm))

#-------------------------------------------------------------------------------
# Element data
#-------------------------------------------------------------------------------

element(symbol='Ci', atomic_mass=13.003)
element(symbol='D', atomic_mass=2.014)
element(symbol='Oi', atomic_mass=18.0)
element(symbol='T', atomic_mass=3.016)
element(symbol='X', atomic_mass=195.083)
#-------------------------------------------------------------------------------
# Species data
#-------------------------------------------------------------------------------

species(name='Ne',
        atoms='Ne:1',
        thermo=(NASA([200.00, 1000.00],
                     [ 2.50000000E+00,  0.00000000E+00,  0.00000000E+00,
                       0.00000000E+00,  0.00000000E+00, -7.45375000E+02,
                       3.35532000E+00]),
                NASA([1000.00, 6000.00],
                     [ 2.50000000E+00,  0.00000000E+00,  0.00000000E+00,
                       0.00000000E+00,  0.00000000E+00, -7.45375000E+02,
                       3.35532000E+00])),
        transport=gas_transport(geom='atom',
                                diam=3.758,
                                well_depth=148.6))

species(name='H4N2O2(2)',
        atoms='H:4 N:2 O:2',
        thermo=(NASA([10.00, 510.00],
                     [ 3.91649000E+00,  5.26586000E-03,  9.10152000E-05,
                      -2.01138000E-07,  1.33301000E-10,  8.60291000E+03,
                       8.43649000E+00]),
                NASA([510.00, 3000.00],
                     [ 3.78936000E+00,  2.37699000E-02, -1.48996000E-05,
                       4.62120000E-09, -5.55972000E-13,  8.38820000E+03,
                       6.73210000E+00])),
        transport=gas_transport(geom='nonlinear',
                                diam=4.687,
                                well_depth=531.4))

species(name='NH2OH(3)',
        atoms='H:3 N:1 O:1',
        thermo=(NASA([200.00, 1000.00],
                     [ 3.21016000E+00,  6.19672000E-03,  1.10595000E-05,
                      -1.96668000E-08,  8.82517000E-12, -6.58148000E+03,
                       7.93294000E+00]),
                NASA([1000.00, 6000.00],
                     [ 3.88113000E+00,  8.15708000E-03, -2.82616000E-06,
                       4.37931000E-10, -2.52725000E-14, -6.86018000E+03,
                       3.79156000E+00])),
        transport=gas_transport(geom='nonlinear',
                                diam=3.492,
                                well_depth=116.7,
                                rot_relax=1.0))

species(name='HNO3(4)',
        atoms='H:1 N:1 O:3',
        thermo=(NASA([200.00, 1000.00],
                     [ 1.55975000E+00,  2.01502000E-02, -1.15217000E-05,
                      -2.31891000E-09,  3.17581000E-12, -1.73956000E+04,
                       1.77295000E+01]),
                NASA([1000.00, 6000.00],
                     [ 8.03061000E+00,  4.46368000E-03, -1.72273000E-06,
                       2.91612000E-10, -1.80487000E-14, -1.93034000E+04,
                      -1.62543000E+01])),
        transport=gas_transport(geom='nonlinear',
                                diam=4.2,
                                well_depth=400.0,
                                dipole=0.2,
                                rot_relax=1.0))

species(name='CH3OH(5)',
        atoms='C:1 H:4 O:1',
        thermo=(NASA([200.00, 1000.00],
                     [ 5.52796000E+00, -1.38922000E-02,  6.21716000E-05,
                      -6.82045000E-08,  2.52019000E-11, -2.55968000E+04,
                      -7.15601000E-01]),
                NASA([1000.00, 6000.00],
                     [ 3.71776000E+00,  1.00962000E-02, -3.53785000E-06,
                       5.61843000E-10, -3.32714000E-14, -2.60222000E+04,
                       4.04183000E+00])),
        transport=gas_transport(geom='nonlinear',
                                diam=3.626,
                                well_depth=481.8,
                                rot_relax=1.0))

species(name='H2O(6)',
        atoms='H:2 O:1',
        thermo=(NASA([100.00, 1130.25],
                     [ 4.05763654E+00, -7.87943800E-04,  2.90880094E-06,
                      -1.47521964E-09,  2.12854962E-13, -3.02815867E+04,
                      -3.11366607E-01]),
                NASA([1130.25, 5000.00],
                     [ 2.84324565E+00,  2.75109326E-03, -7.81035842E-07,
                       1.07244643E-10, -5.79400410E-15, -2.99586106E+04,
                       5.91044721E+00])),
        transport=gas_transport(geom='nonlinear',
                                diam=2.641,
                                well_depth=809.102,
                                polar=1.76,
                                rot_relax=4.0))

species(name='N2(7)',
        atoms='N:2',
        thermo=(NASA([200.00, 1000.00],
                     [ 3.53101000E+00, -1.23661000E-04, -5.02999000E-07,
                       2.43531000E-09, -1.40881000E-12, -1.04698000E+03,
                       2.96747000E+00]),
                NASA([1000.00, 6000.00],
                     [ 2.95258000E+00,  1.39690000E-03, -4.92632000E-07,
                       7.86010000E-11, -4.60755000E-15, -9.23949000E+02,
                       5.87189000E+00])),
        transport=gas_transport(geom='linear',
                                diam=3.621,
                                well_depth=97.53,
                                polar=1.76,
                                rot_relax=4.0))

species(name='O2(8)',
        atoms='O:2',
        thermo=(NASA([100.00, 1074.56],
                     [ 3.53732181E+00, -1.21570928E-03,  5.31617817E-06,
                      -4.89443412E-09,  1.45845038E-12, -1.03858846E+03,
                       4.68368407E+00]),
                NASA([1074.56, 5000.00],
                     [ 3.15382426E+00,  1.67803800E-03, -7.69971009E-07,
                       1.51274711E-10, -1.08781798E-14, -1.04081879E+03,
                       6.16753877E+00])),
        transport=gas_transport(geom='linear',
                                diam=3.467,
                                well_depth=106.7))

species(name='NO2(9)',
        atoms='N:1 O:2',
        thermo=(NASA([200.00, 1000.00],
                     [ 3.78713000E+00, -4.29577000E-04,  1.37384000E-05,
                      -1.74264000E-08,  6.71250000E-12,  2.89500000E+03,
                       6.96592000E+00]),
                NASA([1000.00, 6000.00],
                     [ 4.90482000E+00,  2.14474000E-03, -8.12654000E-07,
                       1.55512000E-10, -1.04114000E-14,  2.28959000E+03,
                      -2.33567000E-01])),
        transport=gas_transport(geom='nonlinear',
                                diam=3.852,
                                well_depth=333.59,
                                dipole=0.4,
                                rot_relax=1.0))

species(name='NO(10)',
        atoms='N:1 O:1',
        thermo=(NASA([200.00, 1000.00],
                     [ 4.08518000E+00, -3.64693000E-03,  8.49608000E-06,
                      -6.62406000E-09,  1.77647000E-12,  9.84061000E+03,
                       2.83578000E+00]),
                NASA([1000.00, 6000.00],
                     [ 3.25487000E+00,  1.19870000E-03, -4.33029000E-07,
                       7.02943000E-11, -4.09789000E-15,  9.90700000E+03,
                       6.40395000E+00])),
        transport=gas_transport(geom='linear',
                                diam=3.339,
                                well_depth=139.32,
                                dipole=0.2,
                                polar=1.76,
                                rot_relax=4.0))

species(name='N2O(11)',
        atoms='N:2 O:1',
        thermo=(NASA([200.00, 1000.00],
                     [ 2.13942000E+00,  1.21801000E-02, -1.59189000E-05,
                       1.20920000E-08, -3.85126000E-12,  8.87009000E+03,
                       1.12478000E+01]),
                NASA([1000.00, 6000.00],
                     [ 4.80641000E+00,  2.65307000E-03, -9.70797000E-07,
                       1.62590000E-10, -9.96738000E-15,  8.19798000E+03,
                      -2.10608000E+00])),
        transport=gas_transport(geom='linear',
                                diam=3.828,
                                well_depth=232.4,
                                dipole=0.2,
                                rot_relax=1.0))

species(name='CO2(12)',
        atoms='C:1 O:2',
        thermo=(NASA([200.00, 1000.00],
                     [ 2.20664000E+00,  1.00970000E-02, -9.96339000E-06,
                       5.47156000E-09, -1.27734000E-12, -4.83530000E+04,
                       1.05262000E+01]),
                NASA([1000.00, 6000.00],
                     [ 4.63537000E+00,  2.74559000E-03, -9.98282000E-07,
                       1.61014000E-10, -9.22019000E-15, -4.90204000E+04,
                      -1.92888000E+00])),
        transport=gas_transport(geom='linear',
                                diam=3.941,
                                well_depth=195.201))

species(name='H2(13)',
        atoms='H:2',
        thermo=(NASA([100.00, 1959.08],
                     [ 3.43536422E+00,  2.12709424E-04, -2.78622934E-07,
                       3.40265512E-10, -7.76027902E-14, -1.03135985E+03,
                      -3.90841773E+00]),
                NASA([1959.08, 5000.00],
                     [ 2.78815464E+00,  5.87655486E-04,  1.59003608E-07,
                      -5.52725361E-11,  4.34301024E-15, -5.96137665E+02,
                       1.12799013E-01])),
        transport=gas_transport(geom='linear',
                                diam=2.833,
                                well_depth=59.7))

species(name='CO(14)',
        atoms='C:1 O:1',
        thermo=(NASA([200.00, 1000.00],
                     [ 3.59508000E+00, -7.21197000E-04,  1.28238000E-06,
                       6.52429000E-10, -8.21715000E-13, -1.43449000E+04,
                       3.44356000E+00]),
                NASA([1000.00, 6000.00],
                     [ 3.03397000E+00,  1.37328000E-03, -4.96445000E-07,
                       8.10281000E-11, -4.85332000E-15, -1.42586000E+04,
                       6.10076000E+00])),
        transport=gas_transport(geom='linear',
                                diam=3.69,
                                well_depth=91.7,
                                polar=1.76,
                                rot_relax=4.0))

species(name='CH4(15)',
        atoms='C:1 H:4',
        thermo=(NASA([100.00, 1084.12],
                     [ 4.20541332E+00, -5.35555155E-03,  2.51122522E-05,
                      -2.13761927E-08,  5.97520268E-12, -1.01619432E+04,
                      -9.21272374E-01]),
                NASA([1084.12, 5000.00],
                     [ 9.08276768E-01,  1.14540676E-02, -4.57172801E-06,
                       8.29189287E-10, -5.66312942E-14, -9.71997928E+03,
                       1.39930319E+01])),
        transport=gas_transport(geom='nonlinear',
                                diam=3.746,
                                well_depth=141.4,
                                polar=2.6,
                                rot_relax=13.0))

species(name='C2H6(16)',
        atoms='C:2 H:6',
        thermo=(NASA([200.00, 1000.00],
                     [ 4.14633000E+00, -4.42384000E-03,  5.70676000E-05,
                      -6.76419000E-08,  2.57224000E-11, -1.15145000E+04,
                       3.26636000E+00]),
                NASA([1000.00, 6000.00],
                     [ 3.97869000E+00,  1.54587000E-02, -5.37527000E-06,
                       8.59587000E-10, -5.11298000E-14, -1.24446000E+04,
                      -6.27170000E-01])),
        transport=gas_transport(geom='nonlinear',
                                diam=4.302,
                                well_depth=252.3,
                                rot_relax=1.5))

species(name='CH2O(17)',
        atoms='C:1 H:2 O:1',
        thermo=(NASA([200.00, 1000.00],
                     [ 4.77187000E+00, -9.76266000E-03,  3.70122000E-05,
                      -3.76922000E-08,  1.31327000E-11, -1.43798000E+04,
                       6.96586000E-01]),
                NASA([1000.00, 6000.00],
                     [ 2.91333000E+00,  6.70040000E-03, -2.55521000E-06,
                       4.27795000E-10, -2.44073000E-14, -1.44622000E+04,
                       7.43823000E+00])),
        transport=gas_transport(geom='nonlinear',
                                diam=3.59,
                                well_depth=498.0,
                                rot_relax=2.0))

species(name='CH3(18)',
        atoms='C:1 H:3',
        thermo=(NASA([200.00, 1000.00],
                     [ 3.61264000E+00,  3.09209000E-03,  9.25475000E-07,
                      -1.65777000E-09,  6.07244000E-13,  1.63850000E+04,
                       1.79995000E+00]),
                NASA([1000.00, 6000.00],
                     [ 2.92198000E+00,  5.37479000E-03, -1.99748000E-06,
                       2.97585000E-10, -1.71860000E-14,  1.65447000E+04,
                       5.25397000E+00])),
        transport=gas_transport(geom='nonlinear',
                                diam=3.8,
                                well_depth=144.0))

species(name='C3H8(19)',
        atoms='C:3 H:8',
        thermo=(NASA([100.00, 990.00],
                     [ 3.06334221E+00,  1.29216901E-02,  3.47024444E-05,
                      -4.70935111E-08,  1.71379367E-11, -1.43905780E+04,
                       1.07836287E+01]),
                NASA([990.00, 5000.00],
                     [ 5.60447685E+00,  2.19527483E-02, -8.22073096E-06,
                       1.50102216E-09, -1.05633884E-13, -1.58394359E+04,
                      -6.22666319E+00])),
        transport=gas_transport(geom='nonlinear',
                                diam=4.982,
                                well_depth=266.801,
                                rot_relax=1.0))

species(name='H(20)',
        atoms='H:1',
        thermo=(NASA([100.00, 3459.60],
                     [ 2.50000000E+00,  9.24384602E-15, -1.36779837E-17,
                       6.66184769E-21, -1.00106912E-24,  2.54742178E+04,
                      -4.44972896E-01]),
                NASA([3459.60, 5000.00],
                     [ 2.49999999E+00,  9.20455546E-12, -3.58608293E-15,
                       6.15198922E-19, -3.92041801E-23,  2.54742178E+04,
                      -4.44972842E-01])),
        transport=gas_transport(geom='atom',
                                diam=2.05,
                                well_depth=145.0))

species(name='C2H5(21)',
        atoms='C:2 H:5',
        thermo=(NASA([200.00, 1000.00],
                     [ 4.11105000E+00, -2.63844000E-03,  4.60475000E-05,
                      -5.64273000E-08,  2.19028000E-11,  1.30014000E+04,
                       4.99418000E+00]),
                NASA([1000.00, 6000.00],
                     [ 4.41717000E+00,  1.22704000E-02, -4.34558000E-06,
                       6.94963000E-10, -4.13531000E-14,  1.21468000E+04,
                      -3.87435000E-01])),
        transport=gas_transport(geom='nonlinear',
                                diam=4.302,
                                well_depth=252.3,
                                rot_relax=1.5))

species(name='HCO(22)',
        atoms='C:1 H:1 O:1',
        thermo=(NASA([200.00, 1000.00],
                     [ 3.97075000E+00, -1.49122000E-03,  9.54042000E-06,
                      -8.82720000E-09,  2.67645000E-12,  3.84203000E+03,
                       4.44660000E+00]),
                NASA([1000.00, 6000.00],
                     [ 3.85781000E+00,  2.64114000E-03, -7.44177000E-07,
                       1.23313000E-10, -8.88959000E-15,  3.61643000E+03,
                       3.92451000E+00])),
        transport=gas_transport(geom='nonlinear',
                                diam=3.59,
                                well_depth=498.0))

species(name='CH3CHO(23)',
        atoms='C:2 H:4 O:1',
        thermo=(NASA([200.00, 1000.00],
                     [ 4.72946000E+00, -3.19329000E-03,  4.75349000E-05,
                      -5.74586000E-08,  2.19311000E-11, -2.15729000E+04,
                       4.10302000E+00]),
                NASA([1000.00, 6000.00],
                     [ 5.40411000E+00,  1.17231000E-02, -4.22631000E-06,
                       6.83725000E-10, -4.09849000E-14, -2.25931000E+04,
                      -3.48079000E+00])),
        transport=gas_transport(geom='nonlinear',
                                diam=3.97,
                                well_depth=436.0,
                                rot_relax=2.0))

species(name='OH(24)',
        atoms='H:1 O:1',
        thermo=(NASA([100.00, 1145.76],
                     [ 3.51456839E+00,  2.92734177E-05, -5.32150560E-07,
                       1.01947516E-09, -3.85939388E-13,  3.41425418E+03,
                       2.10434756E+00]),
                NASA([1145.76, 5000.00],
                     [ 3.07193723E+00,  6.04019852E-04, -1.39805999E-08,
                      -2.13440797E-11,  2.48061354E-15,  3.57938792E+03,
                       4.57801473E+00])),
        transport=gas_transport(geom='linear',
                                diam=2.75,
                                well_depth=80.0))

species(name='C2H4(25)',
        atoms='C:2 H:4',
        thermo=(NASA([200.00, 1000.00],
                     [ 3.65151000E+00, -5.35067000E-03,  5.16486000E-05,
                      -6.36869000E-08,  2.50743000E-11,  5.11451000E+03,
                       5.38561000E+00]),
                NASA([1000.00, 6000.00],
                     [ 4.14446000E+00,  1.02648000E-02, -3.61247000E-06,
                       5.74009000E-10, -3.39296000E-14,  4.19059000E+03,
                      -1.14778000E+00])),
        transport=gas_transport(geom='nonlinear',
                                diam=3.971,
                                well_depth=280.8,
                                rot_relax=1.5))

species(name='O(36)',
        atoms='O:1',
        thermo=(NASA([100.00, 3459.60],
                     [ 2.50000000E+00,  9.24384602E-15, -1.36779837E-17,
                       6.66184769E-21, -1.00106912E-24,  2.92302441E+04,
                       5.12616427E+00]),
                NASA([3459.60, 5000.00],
                     [ 2.49999999E+00,  9.20455546E-12, -3.58608293E-15,
                       6.15198922E-19, -3.92041801E-23,  2.92302441E+04,
                       5.12616433E+00])),
        transport=gas_transport(geom='atom',
                                diam=2.75,
                                well_depth=80.0))

species(name='HO2(39)',
        atoms='H:1 O:2',
        thermo=(NASA([200.00, 1000.00],
                     [ 4.26251000E+00, -4.45642000E-03,  2.05165000E-05,
                      -2.35794000E-08,  9.05614000E-12,  2.62442000E+02,
                       3.88224000E+00]),
                NASA([1000.00, 6000.00],
                     [ 4.10564000E+00,  2.04047000E-03, -3.65878000E-07,
                       1.85973000E-11,  4.98818000E-16,  4.32899000E+01,
                       3.30808000E+00])),
        transport=gas_transport(geom='nonlinear',
                                diam=3.458,
                                well_depth=107.4,
                                rot_relax=1.0))

species(name='H2O2(40)',
        atoms='H:2 O:2',
        thermo=(NASA([200.00, 1000.00],
                     [ 4.23854000E+00, -2.49611000E-04,  1.59858000E-05,
                      -2.06920000E-08,  8.29766000E-12, -1.76486000E+04,
                       3.58850000E+00]),
                NASA([1000.00, 6000.00],
                     [ 4.54017000E+00,  4.15971000E-03, -1.30877000E-06,
                       2.00824000E-10, -1.15509000E-14, -1.79514000E+04,
                       8.55882000E-01])),
        transport=gas_transport(geom='nonlinear',
                                diam=4.196,
                                well_depth=289.3))

species(name='CH2OH(45)',
        atoms='C:1 H:3 O:1',
        thermo=(NASA([200.00, 1000.00],
                     [ 4.40537000E+00, -7.58358000E-04,  2.61926000E-05,
                      -3.46319000E-08,  1.40820000E-11, -3.44228000E+03,
                       3.60691000E+00]),
                NASA([1000.00, 2000.00],
                     [ 6.20504000E+00,  2.43666000E-03,  1.94377000E-06,
                      -1.61013000E-09,  3.14355000E-13, -4.25844000E+03,
                      -7.46071000E+00])),
        transport=gas_transport(geom='nonlinear',
                                diam=3.69,
                                well_depth=417.0,
                                dipole=1.7,
                                rot_relax=2.0))

species(name='CH3O(46)',
        atoms='C:1 H:3 O:1',
        thermo=(NASA([200.00, 1000.00],
                     [ 3.71623000E+00, -2.83501000E-03,  3.77227000E-05,
                      -4.73648000E-08,  1.86739000E-11,  1.35874000E+03,
                       6.55373000E+00]),
                NASA([1000.00, 6000.00],
                     [ 4.75205000E+00,  7.44944000E-03, -2.70076000E-06,
                       4.38793000E-10, -2.64006000E-14,  4.44371000E+02,
                      -1.93362000E+00])),
        transport=gas_transport(geom='nonlinear',
                                diam=3.69,
                                well_depth=417.0,
                                dipole=1.7,
                                rot_relax=2.0))

species(name='NH2(85)',
        atoms='H:2 N:1',
        thermo=(NASA([100.00, 1522.03],
                     [ 4.08973577E+00, -1.15511403E-03,  4.13796328E-06,
                      -2.48323585E-09,  4.84276042E-13,  2.11773522E+04,
                       2.89566843E-01]),
                NASA([1522.03, 5000.00],
                     [ 2.68014191E+00,  3.36843288E-03, -1.12728830E-06,
                       1.76557247E-10, -1.06787207E-14,  2.15115727E+04,
                       7.37048498E+00])),
        transport=gas_transport(geom='nonlinear',
                                diam=2.65,
                                well_depth=80.0,
                                polar=2.26,
                                rot_relax=4.0))

species(name='NH3(86)',
        atoms='H:3 N:1',
        thermo=(NASA([100.00, 993.33],
                     [ 4.09068772E+00, -2.07163708E-03,  1.14752156E-05,
                      -9.47500324E-09,  2.61222190E-12, -6.69036403E+03,
                       2.22530808E-02]),
                NASA([993.33, 5000.00],
                     [ 2.12302067E+00,  6.45658953E-03, -2.31618467E-06,
                       3.93870042E-10, -2.58108324E-14, -6.32928862E+03,
                       9.35177287E+00])),
        transport=gas_transport(geom='nonlinear',
                                diam=2.92,
                                well_depth=481.0,
                                dipole=1.47,
                                rot_relax=10.0))

species(name='NH(87)',
        atoms='H:1 N:1',
        thermo=(NASA([100.00, 1032.81],
                     [ 3.52478158E+00, -1.21104512E-05, -6.40689382E-07,
                       1.50190574E-09, -6.55637140E-13,  4.21056875E+04,
                       1.71085919E+00]),
                NASA([1032.81, 5000.00],
                     [ 2.91398587E+00,  1.04068322E-03, -2.63122347E-07,
                       2.75196493E-11, -8.58762969E-16,  4.23018719E+04,
                       5.01627710E+00])),
        transport=gas_transport(geom='linear',
                                diam=2.65,
                                well_depth=80.0,
                                rot_relax=4.0))

species(name='HNO(88)',
        atoms='H:1 N:1 O:1',
        thermo=(NASA([200.00, 1000.00],
                     [ 4.55326000E+00, -5.84532000E-03,  1.88854000E-05,
                      -1.76040000E-08,  5.72890000E-12,  1.16316000E+04,
                       1.66851000E+00]),
                NASA([1000.00, 6000.00],
                     [ 3.24129000E+00,  2.72377000E-03, -1.60633000E-07,
                      -9.79135000E-11,  1.17104000E-14,  1.17746000E+04,
                       7.27914000E+00])),
        transport=gas_transport(geom='nonlinear',
                                diam=3.43,
                                well_depth=170.0,
                                dipole=1.62,
                                rot_relax=1.0))

species(name='H2NO(89)',
        atoms='H:2 N:1 O:1',
        thermo=(NASA([200.00, 1000.00],
                     [ 3.93201000E+00, -1.64028000E-04,  1.39161000E-05,
                      -1.62748000E-08,  6.00353000E-12,  6.71179000E+03,
                       4.58837000E+00]),
                NASA([1000.00, 6000.00],
                     [ 3.75556000E+00,  5.16219000E-03, -1.76387000E-06,
                       2.75053000E-10, -1.60643000E-14,  6.51826000E+03,
                       4.30933000E+00])),
        transport=gas_transport(geom='nonlinear',
                                diam=3.492,
                                well_depth=116.7,
                                rot_relax=1.0))

species(name='HONO(93)',
        atoms='H:1 N:1 O:2',
        thermo=(NASA([200.00, 1000.00],
                     [ 3.16416000E+00,  8.50518000E-03,  5.48562000E-07,
                      -8.27656000E-09,  4.39957000E-12, -1.07744000E+04,
                       1.00232000E+01]),
                NASA([1000.00, 6000.00],
                     [ 5.79145000E+00,  3.64631000E-03, -1.29113000E-06,
                       2.06498000E-10, -1.22139000E-14, -1.15974000E+04,
                      -4.07145000E+00])),
        transport=gas_transport(geom='nonlinear',
                                diam=3.95,
                                well_depth=350.0,
                                dipole=1.639,
                                rot_relax=1.0))

species(name='HNOH(94)',
        atoms='H:2 N:1 O:1',
        thermo=(NASA([200.00, 1000.00],
                     [ 3.95608000E+00, -3.02611000E-03,  2.56874000E-05,
                      -3.15645000E-08,  1.24085000E-11,  1.09200000E+04,
                       5.55951000E+00]),
                NASA([1000.00, 6000.00],
                     [ 3.98322000E+00,  4.88846000E-03, -1.65087000E-06,
                       2.55371000E-10, -1.48309000E-14,  1.05780000E+04,
                       3.62583000E+00])),
        transport=gas_transport(geom='nonlinear',
                                diam=3.492,
                                well_depth=116.7,
                                rot_relax=1.0))

species(name='HNO2(95)',
        atoms='H:1 N:1 O:2',
        thermo=(NASA([200.00, 1000.00],
                     [ 4.03779000E+00, -4.46123000E-03,  3.19441000E-05,
                      -3.79359000E-08,  1.44571000E-11, -6.53088000E+03,
                       5.90620000E+00]),
                NASA([1000.00, 6000.00],