units(length='cm', time='s', quantity='mol', act_energy='kcal/mol')

ideal_gas(name='gas',
          elements="H D T C Ci O Oi N Ne Ar He Si S Cl X",
          species="""Ne          H4N2O2(2)   NH2OH(3)    HNO3(4)
                     CH3OH(5)    H2O(6)      N2(7)       O2(8)
                     CO2(9)      H2(10)      CO(11)      C2H6(12)
                     CH2O(13)    CH3(14)     C3H8(15)    H(16)
                     C2H5(17)    HCO(18)     CH3CHO(19)  OH(20)
                     C2H4(21)    CH4(24)     O(33)       HO2(36)
                     H2O2(37)    NH2(42)     NH3(43)     CH2OH(44)
                     NO(49)      CH2(51)     CH3O(88)    NO2(91)
                     HNO2(92)    C2H6O(99)   HNO(102)    HONO(103)
                     S(106)      S(108)      S(109)      NO3(110)
                     CH2(114)    H2NO(129)   HNOH(132)   N2H3(133)
                     H2N2(134)   N2H2(168)   N2H4(169)   H3N2O(170)
                     S(171)      H2NO2(172)  S(173)      S(174)
                     HNO3(175)   H2NO3(221)  H2NO3(222)  S(235)
                     H2NO4(247)  H2NO4(248)  NH2NO(361)  HNO(362)
                     H3N2O(365)  H3N2O(366)  H2N2O(367)  H3N2O(368)
                     NNO(374)    H4N2O(375)  S(376)      S(377)
                     S(378)      S(379)      S(383)      S(405)
                     S(410)      S(413)      S(414)      S(415)
                     H2NO2(417)  S(418)      S(419)      H2NO5(436)
                     NH(T)(463)  H2N2(464)   H2N2(465)   H3N2(466)
                     NH3NH(471)  S(472)      S(473)      S(478)
                     S(509)      S(534)      S(553)      S(554)
                     H2NO2(556)  H3NO2(565)  HNO2(571)   HNOO(572)
                     S(576)      S(577)      S(593)      NOHJJ(665)
                     CNO(677)    H3NO2(681)  NO2(695)    HNO2(698)
                     HNO2(699)   HN2O5(700)  HN2O5(701)  NOCO(820)
                     NOON(823)   H3NO(826)   S(829)      S(830)
                     H2NO3(834)  CON(847)    NNOON(858)  S(860)
                     NONOO(873)  S(882)      S(891)      S(913)
                     H2NO2(928)  S(1022)     S(1023)     S(1024)
                     S(1025)     S(1026)     S(1027)     S(1033)
                     S(1056)     S(1069)     S(1105)     S(1107)
                     S(1145)     S(1164)     DME(1198)   S(1201)
                     S(1202)     S(1203)     S(1204)     S(1298)
                     S(1549)     HNO2(5516)""",
          reactions='gas-*',
          transport='Mix',
          initial_state=state(temperature=300.0, pressure=OneAtm))

ideal_interface(name='surface1',
                elements="H D T C Ci O Oi N Ne Ar He Si S Cl X",
                species="""X(1)        HX(22)      OX(23)      CH3X(25)
                          HOX(26)     H2OX(27)    CO2X(28)    OCX(29)
                          CX(30)      CH2X(31)    CHX(32)     *ONN(183)
                          HO2X(184)   *NN(185)    *OONN(186)  *NOO(187)
                          *N(188)     SX(189)     *NNOO(190)  SX(191)
                          *ON(192)    *NO(193)    H3NOX(194)  NO2X(195)
                          NO3X(196)   HNO3X(197)  CH3OX(198)  CH3OX(199)
                          CH4OX(200)  CH3X(208)   HOX(218)    HNOX(369)
                          SX(370)     SX(371)     SX(372)     SX(373)
                          O2X(432)    HO2X(433)   H2N2X(467)  H3N2X(468)
                          H2N2X(469)  H3N2X(470)  H2NX(552)   HNOX(573)
                          HNO2X(574)  SX(575)     H2NOX(666)  NO2JX(696)
                          NO2X(697)   HNX(810)    HNOX(811)   CH2OX(812)
                          *OON(822)   H2NOX(824)  H2NOX(825)  CH2OX(899)
                          CH3OX(900)  HNO2X(930)  SX(932)     SX(933)
                          SX(934)     SX(1014)    SX(1028)    SX(1029)
                          SX(1030)    SX(1031)    SX(1032)    SX(1146)
                          SX(1147)    SX(1148)    SX(1149)    SX(1205)
                          SX(1206)    SX(1207)    SX(1208)    SX(1209)
                          SX(1210)    SX(1296)    CH2X(1297)  SX(1393)
                          NO3X(1400)  SX(2556)    SX(2557)""",
                site_density=2.9e-09,
                phases="gas",
          reactions='surface1-*',
                initial_state=state(temperature=300.0, pressure=OneAtm))

#-------------------------------------------------------------------------------
# Element data
#-------------------------------------------------------------------------------

element(symbol='Ci', atomic_mass=13.003)
element(symbol='D', atomic_mass=2.014)
element(symbol='Oi', atomic_mass=18.0)
element(symbol='T', atomic_mass=3.016)
element(symbol='X', atomic_mass=195.083)
#-------------------------------------------------------------------------------
# Species data
#-------------------------------------------------------------------------------

species(name='Ne',
        atoms='Ne:1',
        thermo=(NASA([200.00, 1000.00],
                     [ 2.50000000E+00,  0.00000000E+00,  0.00000000E+00,
                       0.00000000E+00,  0.00000000E+00, -7.45375000E+02,
                       3.35532000E+00]),
                NASA([1000.00, 6000.00],
                     [ 2.50000000E+00,  0.00000000E+00,  0.00000000E+00,
                       0.00000000E+00,  0.00000000E+00, -7.45375000E+02,
                       3.35532000E+00])),
        transport=gas_transport(geom='atom',
                                diam=3.758,
                                well_depth=148.6))

species(name='H4N2O2(2)',
        atoms='H:4 N:2 O:2',
        thermo=(NASA([10.00, 519.54],
                     [ 3.92183000E+00,  4.86119000E-03,  8.92994000E-05,
                      -1.91351000E-07,  1.23508000E-10,  9.88158000E+03,
                       8.42535000E+00]),
                NASA([519.54, 3000.00],
                     [ 3.53367000E+00,  2.45036000E-02, -1.54954000E-05,
                       4.82131000E-09, -5.80219000E-13,  9.69715000E+03,
                       7.88072000E+00])),
        transport=gas_transport(geom='nonlinear',
                                diam=4.687,
                                well_depth=531.4))

species(name='NH2OH(3)',
        atoms='H:3 N:1 O:1',
        thermo=(NASA([100.00, 1003.06],
                     [ 3.82098811E+00, -4.71559675E-04,  2.62901891E-05,
                      -3.05244225E-08,  1.06029443E-11, -6.16559029E+03,
                       5.65844221E+00]),
                NASA([1003.06, 5000.00],
                     [ 4.72264609E+00,  7.57953581E-03, -3.16643429E-06,
                       6.29231022E-10, -4.68390166E-14, -6.93237827E+03,
                      -1.61487959E+00])),
        transport=gas_transport(geom='nonlinear',
                                diam=3.492,
                                well_depth=116.7,
                                rot_relax=1.0))

species(name='HNO3(4)',
        atoms='H:1 N:1 O:3',
        thermo=(NASA([100.00, 964.74],
                     [ 3.37979722E+00,  7.07791351E-03,  1.89739812E-05,
                      -3.13218649E-08,  1.27351678E-11, -1.74102620E+04,
                       1.01297081E+01]),
                NASA([964.74, 5000.00],
                     [ 8.17854972E+00,  3.61026767E-03, -1.17844592E-06,
                       2.55813290E-10, -2.19834015E-14, -1.91007121E+04,
                      -1.68116524E+01])),
        transport=gas_transport(geom='nonlinear',
                                diam=4.2,
                                well_depth=400.0,
                                dipole=0.2,
                                rot_relax=1.0))

species(name='CH3OH(5)',
        atoms='C:1 H:4 O:1',
        thermo=(NASA([100.00, 1035.75],
                     [ 3.84006221E+00,  1.38241909E-03,  1.91667221E-05,
                      -2.01568699E-08,  6.39102422E-12, -2.56083087E+04,
                       5.90978110E+00]),
                NASA([1035.75, 5000.00],
                     [ 2.79184262E+00,  1.15827858E-02, -4.51551962E-06,
                       8.21206786E-10, -5.67063316E-14, -2.57211672E+04,
                       9.41061788E+00])),
        transport=gas_transport(geom='nonlinear',
                                diam=3.626,
                                well_depth=481.8,
                                rot_relax=1.0))

species(name='H2O(6)',
        atoms='H:2 O:1',
        thermo=(NASA([100.00, 1130.25],
                     [ 4.05763720E+00, -7.87951343E-04,  2.90882564E-06,
                      -1.47524910E-09,  2.12866372E-13, -3.02815867E+04,
                      -3.11369025E-01]),
                NASA([1130.25, 5000.00],
                     [ 2.84324104E+00,  2.75110073E-03, -7.81040007E-07,
                       1.07245603E-10, -5.79408217E-15, -2.99586086E+04,
                       5.91047337E+00])),
        transport=gas_transport(geom='nonlinear',
                                diam=2.641,
                                well_depth=809.102,
                                polar=1.76,
                                rot_relax=4.0))

species(name='N2(7)',
        atoms='N:2',
        thermo=(NASA([200.00, 1000.00],
                     [ 3.53101000E+00, -1.23661000E-04, -5.02999000E-07,
                       2.43531000E-09, -1.40881000E-12, -1.04698000E+03,
                       2.96747000E+00]),
                NASA([1000.00, 6000.00],
                     [ 2.95258000E+00,  1.39690000E-03, -4.92632000E-07,
                       7.86010000E-11, -4.60755000E-15, -9.23949000E+02,
                       5.87189000E+00])),
        transport=gas_transport(geom='linear',
                                diam=3.621,
                                well_depth=97.53,
                                polar=1.76,
                                rot_relax=4.0))

species(name='O2(8)',
        atoms='O:2',
        thermo=(NASA([100.00, 1074.56],
                     [ 3.53732118E+00, -1.21570207E-03,  5.31615377E-06,
                      -4.89440387E-09,  1.45843816E-12, -1.03858843E+03,
                       4.68368631E+00]),
                NASA([1074.56, 5000.00],
                     [ 3.15382772E+00,  1.67803228E-03, -7.69967779E-07,
                       1.51273960E-10, -1.08781182E-14, -1.04082030E+03,
                       6.16751919E+00])),
        transport=gas_transport(geom='linear',
                                diam=3.467,
                                well_depth=106.7))

species(name='CO2(9)',
        atoms='C:1 O:2',
        thermo=(NASA([100.00, 978.22],
                     [ 3.28083821E+00,  2.50193291E-03,  8.08164577E-06,
                      -1.20506695E-08,  4.66526645E-12, -4.84008301E+04,
                       6.00083693E+00]),
                NASA([978.22, 5000.00],
                     [ 4.67429780E+00,  2.60958835E-03, -9.85659769E-07,
                       1.95706729E-10, -1.49830320E-14, -4.89512267E+04,
                      -2.11090702E+00])),
        transport=gas_transport(geom='linear',
                                diam=3.941,
                                well_depth=195.201))

species(name='H2(10)',
        atoms='H:2',
        thermo=(NASA([100.00, 1959.08],
                     [ 3.43536411E+00,  2.12710383E-04, -2.78625110E-07,
                       3.40267219E-10, -7.76032129E-14, -1.03135984E+03,
                      -3.90841731E+00]),
                NASA([1959.08, 5000.00],
                     [ 2.78816619E+00,  5.87640475E-04,  1.59010635E-07,
                      -5.52739465E-11,  4.34311304E-15, -5.96144481E+02,
                       1.12730527E-01])),
        transport=gas_transport(geom='linear',
                                diam=2.833,
                                well_depth=59.7))

species(name='CO(11)',
        atoms='C:1 O:1',
        thermo=(NASA([100.00, 1571.64],
                     [ 3.56837982E+00, -8.52124063E-04,  2.48917390E-06,
                      -1.56330672E-09,  3.13594213E-13, -1.42842549E+04,
                       3.57912239E+00]),
                NASA([1571.64, 5000.00],
                     [ 2.91306987E+00,  1.64657389E-03, -6.88612820E-07,
                       1.21036930E-10, -7.84014743E-15, -1.41808862E+04,
                       6.71043900E+00])),
        transport=gas_transport(geom='linear',
                                diam=3.69,
                                well_depth=91.7,
                                polar=1.76,
                                rot_relax=4.0))

species(name='C2H6(12)',
        atoms='C:2 H:6',
        thermo=(NASA([100.00, 1012.42],
                     [ 3.72239308E+00,  1.65083640E-03,  3.44175601E-05,
                      -3.76858321E-08,  1.24450696E-11, -1.15575902E+04,
                       4.68247939E+00]),
                NASA([1012.42, 5000.00],
                     [ 2.82848184E+00,  1.73040581E-02, -6.73334315E-06,
                       1.23742041E-09, -8.65676548E-14, -1.19978077E+04,
                       5.93812118E+00])),
        transport=gas_transport(geom='nonlinear',
                                diam=4.302,
                                well_depth=252.3,
                                rot_relax=1.5))

species(name='CH2O(13)',
        atoms='C:1 H:2 O:1',
        thermo=(NASA([100.00, 1070.44],
                     [ 4.12927829E+00, -4.08401633E-03,  2.03229448E-05,
                      -1.83524377E-08,  5.37976060E-12, -1.44294640E+04,
                       3.22418365E+00]),
                NASA([1070.44, 5000.00],
                     [ 2.21172293E+00,  7.94265924E-03, -3.34193191E-06,
                       6.28471724E-10, -4.40431711E-14, -1.42974450E+04,
                       1.13049069E+01])),
        transport=gas_transport(geom='nonlinear',
                                diam=3.59,
                                well_depth=498.0,
                                rot_relax=2.0))

species(name='CH3(14)',
        atoms='C:1 H:3',
        thermo=(NASA([100.00, 697.63],
                     [ 3.96043178E+00,  5.92930195E-04,  8.78578951E-06,
                      -9.88035524E-09,  3.63236942E-12,  1.64218817E+04,
                       3.39862787E-01]),
                NASA([697.63, 5000.00],
                     [ 3.09511262E+00,  5.55429714E-03, -1.88158748E-06,
                       3.13334732E-10, -2.05194931E-14,  1.65426190E+04,
                       4.20297474E+00])),
        transport=gas_transport(geom='nonlinear',
                                diam=3.8,
                                well_depth=144.0))

species(name='C3H8(15)',
        atoms='C:3 H:8',
        thermo=(NASA([100.00, 989.99],
                     [ 3.06337235E+00,  1.29213276E-02,  3.47037401E-05,
                      -4.70952219E-08,  1.71386763E-11, -1.43905793E+04,
                       1.07835211E+01]),
                NASA([989.99, 5000.00],
                     [ 5.60435845E+00,  2.19529500E-02, -8.22084738E-06,
                       1.50104968E-09, -1.05636167E-13, -1.58393862E+04,
                      -6.22599672E+00])),
        transport=gas_transport(geom='nonlinear',
                                diam=4.982,
                                well_depth=266.801,
                                rot_relax=1.0))

species(name='H(16)',
        atoms='H:1',
        thermo=(NASA([100.00, 4383.16],
                     [ 2.50000000E+00, -2.38914167E-13,  3.12709494E-16,
                      -1.33367320E-19,  1.74989654E-23,  2.54742178E+04,
                      -4.44972897E-01]),
                NASA([4383.16, 5000.00],
                     [ 2.50003447E+00, -3.04996987E-08,  1.01101187E-11,
                      -1.48796738E-15,  8.20356170E-20,  2.54741866E+04,
                      -4.45191184E-01])),
        transport=gas_transport(geom='atom',
                                diam=2.05,
                                well_depth=145.0))

species(name='C2H5(17)',
        atoms='C:2 H:5',
        thermo=(NASA([100.00, 1006.87],
                     [ 3.68745380E+00,  3.06903510E-03,  2.55868228E-05,
                      -2.94070210E-08,  9.94049079E-12,  1.31153653E+04,
                       6.96689006E+00]),
                NASA([1006.87, 5000.00],
                     [ 3.53785893E+00,  1.37310809E-02, -5.29559886E-06,
                       9.71471661E-10, -6.80280220E-14,  1.26351584E+04,
                       5.15538530E+00])),
        transport=gas_transport(geom='nonlinear',
                                diam=4.302,
                                well_depth=252.3,
                                rot_relax=1.5))

species(name='HCO(18)',
        atoms='C:1 H:1 O:1',
        thermo=(NASA([100.00, 1112.10],
                     [ 4.05936498E+00, -1.73847479E-03,  9.14984441E-06,
                      -8.01135632E-09,  2.25738876E-12,  3.84377613E+03,
                       3.32449376E+00]),
                NASA([1112.10, 5000.00],
                     [ 3.05135606E+00,  4.11707384E-03, -1.75586963E-06,
                       3.29304046E-10, -2.29175030E-14,  3.93008180E+03,
                       7.67467582E+00])),
        transport=gas_transport(geom='nonlinear',
                                diam=3.59,
                                well_depth=498.0))

species(name='CH3CHO(19)',
        atoms='C:2 H:4 O:1',
        thermo=(NASA([100.00, 1028.81],
                     [ 3.57992397E+00,  5.18983474E-03,  2.26897496E-05,
                      -2.73742644E-08,  9.28479682E-12, -2.13697374E+04,
                       8.96971567E+00]),
                NASA([1028.81, 5000.00],
                     [ 4.08563906E+00,  1.39061194E-02, -5.59370172E-06,
                       1.04609264E-09, -7.38738518E-14, -2.20391345E+04,
                       3.76801423E+00])),
        transport=gas_transport(geom='nonlinear',
                                diam=3.97,
                                well_depth=436.0,
                                rot_relax=2.0))

species(name='OH(20)',
        atoms='H:1 O:1',
        thermo=(NASA([100.00, 1145.76],
                     [ 3.51456841E+00,  2.92731942E-05, -5.32149835E-07,
                       1.01947431E-09, -3.85939061E-13,  3.41425418E+03,
                       2.10434749E+00]),
                NASA([1145.76, 5000.00],
                     [ 3.07193709E+00,  6.04020086E-04, -1.39807303E-08,
                      -2.13440498E-11,  2.48061111E-15,  3.57938799E+03,
                       4.57801556E+00])),
        transport=gas_transport(geom='linear',
                                diam=2.75,
                                well_depth=80.0))

species(name='C2H4(21)',
        atoms='C:2 H:4',
        thermo=(NASA([100.00, 979.37],
                     [ 3.97469045E+00, -4.75813325E-03,  4.16772624E-05,
                      -4.51377676E-08,  1.54218287E-11,  4.91540855E+03,
                       3.62439976E+00]),
                NASA([979.37, 5000.00],
                     [ 3.55670229E+00,  1.10625819E-02, -4.17009559E-06,
                       7.85564219E-10, -5.70042086E-14,  4.32042473E+03,
                       2.17665377E+00])),
        transport=gas_transport(geom='nonlinear',
                                diam=3.971,
                                well_depth=280.8,
                                rot_relax=1.5))

species(name='CH4(24)',
        atoms='C:1 H:4',
        thermo=(NASA([100.00, 1084.15],
                     [ 4.20540072E+00, -5.35540640E-03,  2.51117636E-05,
                      -2.13755910E-08,  5.97496145E-12, -1.01619427E+04,
                      -9.21226951E-01]),
                NASA([1084.15, 5000.00],
                     [ 9.08349401E-01,  1.14539479E-02, -4.57166053E-06,
                       8.29173612E-10, -5.66300105E-14, -9.72001110E+03,
                       1.39926204E+01])),
        transport=gas_transport(geom='nonlinear',
                                diam=3.746,
                                well_depth=141.4,
                                polar=2.6,
                                rot_relax=13.0))

species(name='O(33)',
        atoms='O:1',
        thermo=(NASA([100.00, 4383.16],
                     [ 2.50000000E+00, -2.38914167E-13,  3.12709494E-16,
                      -1.33367320E-19,  1.74989654E-23,  2.92302441E+04,
                       5.12616427E+00]),
                NASA([4383.16, 5000.00],
                     [ 2.50003447E+00, -3.04996987E-08,  1.01101187E-11,
                      -1.48796738E-15,  8.20356170E-20,  2.92302130E+04,
                       5.12594599E+00])),
        transport=gas_transport(geom='atom',
                                diam=2.75,
                                well_depth=80.0))

species(name='HO2(36)',
        atoms='H:1 O:2',
        thermo=(NASA([100.00, 1000.24],
                     [ 4.02425861E+00, -1.64549504E-03,  1.05110773E-05,
                      -1.06993350E-08,  3.49387579E-12,  2.34739940E+02,
                       4.70057285E+00]),
                NASA([1000.24, 5000.00],
                     [ 3.62866972E+00,  3.05389584E-03, -1.21131943E-06,
                       2.29641965E-10, -1.65063959E-14,  1.57931174E+02,
                       5.82961483E+00])),
        transport=gas_transport(geom='nonlinear',
                                diam=3.458,
                                well_depth=107.4,
                                rot_relax=1.0))

species(name='H2O2(37)',
        atoms='H:2 O:2',
        thermo=(NASA([100.00, 1005.77],
                     [ 3.81666650E+00,  2.71170060E-03,  6.17781977E-06,
                      -8.24871834E-09,  2.92678168E-12, -1.76922542E+04,
                       5.38572985E+00]),
                NASA([1005.77, 5000.00],
                     [ 4.14709440E+00,  4.72699093E-03, -1.79322910E-06,
                       3.26126082E-10, -2.27314571E-14, -1.79271194E+04,
                       2.95254574E+00])),
        transport=gas_transport(geom='nonlinear',
                                diam=4.196,
                                well_depth=289.3))

species(name='NH2(42)',
        atoms='H:2 N:1',
        thermo=(NASA([100.00, 1522.06],
                     [ 4.08973448E+00, -1.15510138E-03,  4.13792931E-06,
                      -2.48320358E-09,  4.84266256E-13,  2.11773523E+04,
                       2.89571669E-01]),
                NASA([1522.06, 5000.00],
                     [ 2.68017679E+00,  3.36838246E-03, -1.12726257E-06,
                       1.76551709E-10, -1.06782934E-14,  2.15115546E+04,
                       7.37028230E+00])),
        transport=gas_transport(geom='nonlinear',
                                diam=2.65,
                                well_depth=80.0,
                                polar=2.26,
                                rot_relax=4.0))

species(name='NH3(43)',
        atoms='H:3 N:1',
        thermo=(NASA([100.00, 993.31],
                     [ 4.09068871E+00, -2.07164892E-03,  1.14752579E-05,
                      -9.47505886E-09,  2.61224588E-12, -6.69036407E+03,
                       2.22495594E-02]),
                NASA([993.31, 5000.00],
                     [ 2.12301674E+00,  6.45659621E-03, -2.31618853E-06,
                       3.93870953E-10, -2.58109080E-14, -6.32928697E+03,
                       9.35179499E+00])),
        transport=gas_transport(geom='nonlinear',
                                diam=2.92,
                                well_depth=481.0,
                                dipole=1.47,
                                rot_relax=10.0))

species(name='CH2OH(44)',
        atoms='C:1 H:3 O:1',
        thermo=(NASA([100.00, 1015.48],
                     [ 3.61905813E+00,  6.28691312E-03,  5.57468797E-06,
                      -9.77892565E-09,  3.69467023E-12, -3.32162412E+03,
                       6.61711719E+00]),
                NASA([1015.48, 5000.00],
                     [ 4.77199556E+00,  6.78476310E-03, -2.60444492E-06,
                       4.77569185E-10, -3.34612248E-14, -3.81560640E+03,
                      -2.42174819E-01])),
        transport=gas_transport(geom='nonlinear',
                                diam=3.69,
                                well_depth=417.0,
                                dipole=1.7,
                                rot_relax=2.0))

species(name='NO(49)',
        atoms='N:1 O:1',
        thermo=(NASA([100.00, 1407.00],
                     [ 3.55718287E+00, -8.90585197E-04,  2.98557151E-06,
                      -2.08691596E-09,  4.65962924E-13,  9.95239678E+03,
                       4.55250983E+00]),
                NASA([1407.00, 5000.00],
                     [ 2.93795514E+00,  1.75427954E-03, -7.77024161E-07,
                       1.42656040E-10, -9.57872631E-15,  1.00391035E+04,
                       7.44026449E+00])),
        transport=gas_transport(geom='linear',
                                diam=3.339,
                                well_depth=139.32,
                                dipole=0.2,
                                polar=1.76,
                                rot_relax=4.0))

species(name='CH2(51)',
        atoms='C:1 H:2',
        thermo=(NASA([100.00, 1104.62],
                     [ 4.01192382E+00, -1.54978221E-04,  3.26297694E-06,
                      -2.40421703E-09,  5.69496393E-13,  4.58676802E+04,
                       5.33200695E-01]),
                NASA([1104.62, 5000.00],
                     [ 3.14983364E+00,  2.96674300E-03, -9.76056091E-07,
                       1.54115339E-10, -9.50338624E-15,  4.60581391E+04,
                       4.77807794E+00])),
        transport=gas_transport(geom='nonlinear',
                                diam=3.8,
                                well_depth=144.0))

species(name='CH3O(88)',
        atoms='C:1 H:3 O:1',
        thermo=(NASA([100.00, 985.46],
                     [ 3.95612920E+00, -3.06310406E-03,  3.06883846E-05,
                      -3.34123321E-08,  1.13928817E-11,  1.19253617E+03,
                       4.69435378E+00]),
                NASA([985.46, 5000.00],
                     [ 3.74492014E+00,  8.52627590E-03, -3.28790848E-06,
                       6.23964954E-10, -4.53276472E-14,  7.13053773E+02,
                       3.06622078E+00])),
        transport=gas_transport(geom='nonlinear',
                                diam=3.69,
                                well_depth=417.0,
                                dipole=1.7,
                                rot_relax=2.0))

species(name='NO2(91)',
        atoms='N:1 O:2',
        thermo=(NASA([100.00, 1003.63],
                     [ 3.95017408E+00, -1.10886044E-03,  1.34099668E-05,
                      -1.53105837E-08,  5.31009534E-12,  2.97329533E+03,
                       6.19456759E+00]),
                NASA([1003.63, 5000.00],
                     [ 4.42985754E+00,  2.84579572E-03, -1.26848228E-06,
                       2.63842092E-10, -2.02206262E-14,  2.58155693E+03,
                       2.40670381E+00])),
        transport=gas_transport(geom='nonlinear',
                                diam=3.852,
                                well_depth=333.59,
                                dipole=0.4,
                                rot_relax=1.0))

species(name='HNO2(92)',
        atoms='H:1 N:1 O:2',
        thermo=(NASA([100.00, 1007.86],
                     [ 3.98439383E+00, -2.90734680E-03,  2.42183380E-05,
                      -2.60196189E-08,  8.72153650E-12, -6.45816992E+03,
                       6.63654543E+00]),
                NASA([1007.86, 5000.00],
                     [ 3.92430980E+00,  6.24041949E-03, -2.65593673E-06,
                       5.27594680E-10, -3.90804608E-14, -6.89855750E+03,
                       4.68204526E+00])),
        transport=gas_transport(geom='nonlinear',
                                diam=3.95,
                                well_depth=350.0,
                                dipole=1.639,
                                rot_relax=1.0))

species(name='C2H6O(99)',
        atoms='C:2 H:6 O:1',
        thermo=(NASA([100.00, 984.00],
                     [ 3.24025972E+00,  1.04859555E-02,  2.63967779E-05,
                      -3.69293677E-08,  1.36710645E-11, -2.99902844E+04,
                       1.11433012E+01]),
                NASA([984.00, 5000.00],
                     [ 5.68494081E+00,  1.61313303E-02, -5.96365813E-06,
                       1.08897225E-09, -7.69621044E-14, -3.12258208E+04,
                      -4.44488784E+00])),
        transport=gas_transport(geom='nonlinear',
                                diam=4.53,
                                well_depth=362.6,
                                rot_relax=1.5))

species(name='HNO(102)',
        atoms='H:1 N:1 O:1',
        thermo=(NASA([100.00, 1248.02],
                     [ 4.11013127E+00, -2.22095885E-03,  8.85059522E-06,
                      -6.83143344E-09,  1.69823055E-12,  1.15599619E+04,
                       3.43464449E+00]),
                NASA([1248.02, 5000.00],
                     [ 2.64831496E+00,  4.64384846E-03, -2.01987521E-06,
                       3.74699537E-10, -2.55961440E-14,  1.17550965E+04,
                       1.01309021E+01])),
        transport=gas_transport(geom='nonlinear',
                                diam=3.43,
                                well_depth=170.0,
                                dipole=1.62,
                                rot_relax=1.0))

species(name='HONO(103)',
        atoms='H:1 N:1 O:2',
        thermo=(NASA([100.00, 1030.68],
                     [ 3.58323786E+00,  6.77961102E-03,  2.80751611E-06,
                      -7.92825694E-09,  3.25993137E-12, -1.05229888E+04,
                       7.64226901E+00]),
                NASA([1030.68, 5000.00],
                     [ 5.61863377E+00,  4.45474115E-03, -1.92170321E-06,
                       3.78236080E-10, -2.77198154E-14, -1.12386375E+04,
                      -3.67518764E+00])),
        transport=gas_transport(geom='nonlinear',
                                diam=3.95,