units(length='cm', time='s', quantity='mol', act_energy='kcal/mol')

ideal_gas(name='gas',
          elements="H D T C Ci O Oi N Ne Ar He Si S Cl I X",
          species="""Ne          H4N2O2(2)   NH2OH(3)    HNO3(4)
                     CH3OH(5)    H2O(6)      N2(7)       O2(8)
                     NO2(9)      NO(10)      N2O(11)     CO2(12)
                     H2(13)      CO(14)      CH4(15)     C2H6(16)
                     CH2O(17)    CH3(18)     C3H8(19)    H(20)
                     C2H5(21)    HCO(22)     CH3CHO(23)  OH(24)
                     C2H4(25)    HO2(39)     NH2(85)     H2NO(89)
                     HNOH(94)    N2H3(99)    H3N2O(193)  H2NO2(195)
                     S(196)      H2NO3(252)  NH2NO(501)  H2N2O(503)
                     S(566)""",
          reactions='gas-*',
          transport='Mix',
          initial_state=state(temperature=300.0, pressure=OneAtm))

ideal_interface(name='surface1',
                elements="H D T C Ci O Oi N Ne Ar He Si S Cl I X",
                species="""X(1)        HX(26)      OX(27)      CH3X(28)
                          HOX(29)     H2OX(30)    CO2X(31)    OCX(32)
                          CX(33)      CH2X(34)    CHX(35)     SX(207)
                          SX(215)     H2NOX(217)  H3NOX(218)  HNO3X(221)
                          CH4OX(224)  SX(513)     HNO2X(733)""",
                site_density=2.587e-09,
                phases="gas",
          reactions='surface1-*',
                initial_state=state(temperature=300.0, pressure=OneAtm))

#-------------------------------------------------------------------------------
# Element data
#-------------------------------------------------------------------------------

element(symbol='Ci', atomic_mass=13.003)
element(symbol='D', atomic_mass=2.014)
element(symbol='Oi', atomic_mass=18.0)
element(symbol='T', atomic_mass=3.016)
element(symbol='X', atomic_mass=195.083)
#-------------------------------------------------------------------------------
# Species data
#-------------------------------------------------------------------------------

species(name='Ne',
        atoms='Ne:1',
        thermo=(NASA([200.00, 1000.00],
                     [ 2.50000000E+00,  0.00000000E+00,  0.00000000E+00,
                       0.00000000E+00,  0.00000000E+00, -7.45375000E+02,
                       3.35532000E+00]),
                NASA([1000.00, 6000.00],
                     [ 2.50000000E+00,  0.00000000E+00,  0.00000000E+00,
                       0.00000000E+00,  0.00000000E+00, -7.45375000E+02,
                       3.35532000E+00])),
        transport=gas_transport(geom='atom',
                                diam=3.758,
                                well_depth=148.6))

species(name='H4N2O2(2)',
        atoms='H:4 N:2 O:2',
        thermo=(NASA([10.00, 510.00],
                     [ 3.91649000E+00,  5.26586000E-03,  9.10152000E-05,
                      -2.01138000E-07,  1.33301000E-10,  8.60291000E+03,
                       8.43649000E+00]),
                NASA([510.00, 3000.00],
                     [ 3.78936000E+00,  2.37699000E-02, -1.48996000E-05,
                       4.62120000E-09, -5.55972000E-13,  8.38820000E+03,
                       6.73210000E+00])),
        transport=gas_transport(geom='nonlinear',
                                diam=4.687,
                                well_depth=531.4))

species(name='NH2OH(3)',
        atoms='H:3 N:1 O:1',
        thermo=(NASA([100.00, 1003.06],
                     [ 3.82098811E+00, -4.71559675E-04,  2.62901891E-05,
                      -3.05244225E-08,  1.06029443E-11, -6.16559029E+03,
                       5.65844221E+00]),
                NASA([1003.06, 5000.00],
                     [ 4.72264609E+00,  7.57953581E-03, -3.16643429E-06,
                       6.29231022E-10, -4.68390166E-14, -6.93237827E+03,
                      -1.61487959E+00])),
        transport=gas_transport(geom='nonlinear',
                                diam=3.492,
                                well_depth=116.7,
                                rot_relax=1.0))

species(name='HNO3(4)',
        atoms='H:1 N:1 O:3',
        thermo=(NASA([100.00, 964.74],
                     [ 3.37979722E+00,  7.07791351E-03,  1.89739812E-05,
                      -3.13218649E-08,  1.27351678E-11, -1.74102620E+04,
                       1.01297081E+01]),
                NASA([964.74, 5000.00],
                     [ 8.17854972E+00,  3.61026767E-03, -1.17844592E-06,
                       2.55813290E-10, -2.19834015E-14, -1.91007121E+04,
                      -1.68116524E+01])),
        transport=gas_transport(geom='nonlinear',
                                diam=4.2,
                                well_depth=400.0,
                                dipole=0.2,
                                rot_relax=1.0))

species(name='CH3OH(5)',
        atoms='C:1 H:4 O:1',
        thermo=(NASA([100.00, 1035.75],
                     [ 3.84006221E+00,  1.38241909E-03,  1.91667221E-05,
                      -2.01568699E-08,  6.39102422E-12, -2.56083087E+04,
                       5.90978110E+00]),
                NASA([1035.75, 5000.00],
                     [ 2.79184262E+00,  1.15827858E-02, -4.51551962E-06,
                       8.21206786E-10, -5.67063316E-14, -2.57211672E+04,
                       9.41061788E+00])),
        transport=gas_transport(geom='nonlinear',
                                diam=3.626,
                                well_depth=481.8,
                                rot_relax=1.0))

species(name='H2O(6)',
        atoms='H:2 O:1',
        thermo=(NASA([100.00, 1130.25],
                     [ 4.05763720E+00, -7.87951343E-04,  2.90882564E-06,
                      -1.47524910E-09,  2.12866372E-13, -3.02815867E+04,
                      -3.11369025E-01]),
                NASA([1130.25, 5000.00],
                     [ 2.84324104E+00,  2.75110073E-03, -7.81040007E-07,
                       1.07245603E-10, -5.79408217E-15, -2.99586086E+04,
                       5.91047337E+00])),
        transport=gas_transport(geom='nonlinear',
                                diam=2.641,
                                well_depth=809.102,
                                polar=1.76,
                                rot_relax=4.0))

species(name='N2(7)',
        atoms='N:2',
        thermo=(NASA([200.00, 1000.00],
                     [ 3.53101000E+00, -1.23661000E-04, -5.02999000E-07,
                       2.43531000E-09, -1.40881000E-12, -1.04698000E+03,
                       2.96747000E+00]),
                NASA([1000.00, 6000.00],
                     [ 2.95258000E+00,  1.39690000E-03, -4.92632000E-07,
                       7.86010000E-11, -4.60755000E-15, -9.23949000E+02,
                       5.87189000E+00])),
        transport=gas_transport(geom='linear',
                                diam=3.621,
                                well_depth=97.53,
                                polar=1.76,
                                rot_relax=4.0))

species(name='O2(8)',
        atoms='O:2',
        thermo=(NASA([100.00, 1074.56],
                     [ 3.53732118E+00, -1.21570207E-03,  5.31615377E-06,
                      -4.89440387E-09,  1.45843816E-12, -1.03858843E+03,
                       4.68368631E+00]),
                NASA([1074.56, 5000.00],
                     [ 3.15382772E+00,  1.67803228E-03, -7.69967779E-07,
                       1.51273960E-10, -1.08781182E-14, -1.04082030E+03,
                       6.16751919E+00])),
        transport=gas_transport(geom='linear',
                                diam=3.467,
                                well_depth=106.7))

species(name='NO2(9)',
        atoms='N:1 O:2',
        thermo=(NASA([100.00, 1003.63],
                     [ 3.95017408E+00, -1.10886044E-03,  1.34099668E-05,
                      -1.53105837E-08,  5.31009534E-12,  2.97329533E+03,
                       6.19456759E+00]),
                NASA([1003.63, 5000.00],
                     [ 4.42985754E+00,  2.84579572E-03, -1.26848228E-06,
                       2.63842092E-10, -2.02206262E-14,  2.58155693E+03,
                       2.40670381E+00])),
        transport=gas_transport(geom='nonlinear',
                                diam=3.852,
                                well_depth=333.59,
                                dipole=0.4,
                                rot_relax=1.0))

species(name='NO(10)',
        atoms='N:1 O:1',
        thermo=(NASA([100.00, 1407.00],
                     [ 3.55718287E+00, -8.90585197E-04,  2.98557151E-06,
                      -2.08691596E-09,  4.65962924E-13,  9.95239678E+03,
                       4.55250983E+00]),
                NASA([1407.00, 5000.00],
                     [ 2.93795514E+00,  1.75427954E-03, -7.77024161E-07,
                       1.42656040E-10, -9.57872631E-15,  1.00391035E+04,
                       7.44026449E+00])),
        transport=gas_transport(geom='linear',
                                diam=3.339,
                                well_depth=139.32,
                                dipole=0.2,
                                polar=1.76,
                                rot_relax=4.0))

species(name='N2O(11)',
        atoms='N:2 O:1',
        thermo=(NASA([100.00, 1026.61],
                     [ 3.22183369E+00,  4.41469432E-03,  2.54409227E-06,
                      -6.06073232E-09,  2.45092030E-12,  8.76576974E+03,
                       6.72928681E+00]),
                NASA([1026.61, 5000.00],
                     [ 4.61742784E+00,  3.00864963E-03, -1.29224172E-06,
                       2.55914757E-10, -1.88714262E-14,  8.26677203E+03,
                      -1.07502592E+00])),
        transport=gas_transport(geom='linear',
                                diam=3.828,
                                well_depth=232.4,
                                dipole=0.2,
                                rot_relax=1.0))

species(name='CO2(12)',
        atoms='C:1 O:2',
        thermo=(NASA([100.00, 978.22],
                     [ 3.28083821E+00,  2.50193291E-03,  8.08164577E-06,
                      -1.20506695E-08,  4.66526645E-12, -4.84008301E+04,
                       6.00083693E+00]),
                NASA([978.22, 5000.00],
                     [ 4.67429780E+00,  2.60958835E-03, -9.85659769E-07,
                       1.95706729E-10, -1.49830320E-14, -4.89512267E+04,
                      -2.11090702E+00])),
        transport=gas_transport(geom='linear',
                                diam=3.941,
                                well_depth=195.201))

species(name='H2(13)',
        atoms='H:2',
        thermo=(NASA([100.00, 1959.08],
                     [ 3.43536411E+00,  2.12710383E-04, -2.78625110E-07,
                       3.40267219E-10, -7.76032129E-14, -1.03135984E+03,
                      -3.90841731E+00]),
                NASA([1959.08, 5000.00],
                     [ 2.78816619E+00,  5.87640475E-04,  1.59010635E-07,
                      -5.52739465E-11,  4.34311304E-15, -5.96144481E+02,
                       1.12730527E-01])),
        transport=gas_transport(geom='linear',
                                diam=2.833,
                                well_depth=59.7))

species(name='CO(14)',
        atoms='C:1 O:1',
        thermo=(NASA([100.00, 1571.64],
                     [ 3.56837982E+00, -8.52124063E-04,  2.48917390E-06,
                      -1.56330672E-09,  3.13594213E-13, -1.42842549E+04,
                       3.57912239E+00]),
                NASA([1571.64, 5000.00],
                     [ 2.91306987E+00,  1.64657389E-03, -6.88612820E-07,
                       1.21036930E-10, -7.84014743E-15, -1.41808862E+04,
                       6.71043900E+00])),
        transport=gas_transport(geom='linear',
                                diam=3.69,
                                well_depth=91.7,
                                polar=1.76,
                                rot_relax=4.0))

species(name='CH4(15)',
        atoms='C:1 H:4',
        thermo=(NASA([100.00, 1084.15],
                     [ 4.20540072E+00, -5.35540640E-03,  2.51117636E-05,
                      -2.13755910E-08,  5.97496145E-12, -1.01619427E+04,
                      -9.21226951E-01]),
                NASA([1084.15, 5000.00],
                     [ 9.08349401E-01,  1.14539479E-02, -4.57166053E-06,
                       8.29173612E-10, -5.66300105E-14, -9.72001110E+03,
                       1.39926204E+01])),
        transport=gas_transport(geom='nonlinear',
                                diam=3.746,
                                well_depth=141.4,
                                polar=2.6,
                                rot_relax=13.0))

species(name='C2H6(16)',
        atoms='C:2 H:6',
        thermo=(NASA([100.00, 1012.42],
                     [ 3.72239308E+00,  1.65083640E-03,  3.44175601E-05,
                      -3.76858321E-08,  1.24450696E-11, -1.15575902E+04,
                       4.68247939E+00]),
                NASA([1012.42, 5000.00],
                     [ 2.82848184E+00,  1.73040581E-02, -6.73334315E-06,
                       1.23742041E-09, -8.65676548E-14, -1.19978077E+04,
                       5.93812118E+00])),
        transport=gas_transport(geom='nonlinear',
                                diam=4.302,
                                well_depth=252.3,
                                rot_relax=1.5))

species(name='CH2O(17)',
        atoms='C:1 H:2 O:1',
        thermo=(NASA([100.00, 1070.44],
                     [ 4.12927829E+00, -4.08401633E-03,  2.03229448E-05,
                      -1.83524377E-08,  5.37976060E-12, -1.44294640E+04,
                       3.22418365E+00]),
                NASA([1070.44, 5000.00],
                     [ 2.21172293E+00,  7.94265924E-03, -3.34193191E-06,
                       6.28471724E-10, -4.40431711E-14, -1.42974450E+04,
                       1.13049069E+01])),
        transport=gas_transport(geom='nonlinear',
                                diam=3.59,
                                well_depth=498.0,
                                rot_relax=2.0))

species(name='CH3(18)',
        atoms='C:1 H:3',
        thermo=(NASA([100.00, 697.63],
                     [ 3.96043178E+00,  5.92930195E-04,  8.78578951E-06,
                      -9.88035524E-09,  3.63236942E-12,  1.64218817E+04,
                       3.39862787E-01]),
                NASA([697.63, 5000.00],
                     [ 3.09511262E+00,  5.55429714E-03, -1.88158748E-06,
                       3.13334732E-10, -2.05194931E-14,  1.65426190E+04,
                       4.20297474E+00])),
        transport=gas_transport(geom='nonlinear',
                                diam=3.8,
                                well_depth=144.0))

species(name='C3H8(19)',
        atoms='C:3 H:8',
        thermo=(NASA([100.00, 989.99],
                     [ 3.06337235E+00,  1.29213276E-02,  3.47037401E-05,
                      -4.70952219E-08,  1.71386763E-11, -1.43905793E+04,
                       1.07835211E+01]),
                NASA([989.99, 5000.00],
                     [ 5.60435845E+00,  2.19529500E-02, -8.22084738E-06,
                       1.50104968E-09, -1.05636167E-13, -1.58393862E+04,
                      -6.22599672E+00])),
        transport=gas_transport(geom='nonlinear',
                                diam=4.982,
                                well_depth=266.801,
                                rot_relax=1.0))

species(name='H(20)',
        atoms='H:1',
        thermo=(NASA([100.00, 4383.16],
                     [ 2.50000000E+00, -2.38914167E-13,  3.12709494E-16,
                      -1.33367320E-19,  1.74989654E-23,  2.54742178E+04,
                      -4.44972897E-01]),
                NASA([4383.16, 5000.00],
                     [ 2.50003447E+00, -3.04996987E-08,  1.01101187E-11,
                      -1.48796738E-15,  8.20356170E-20,  2.54741866E+04,
                      -4.45191184E-01])),
        transport=gas_transport(geom='atom',
                                diam=2.05,
                                well_depth=145.0))

species(name='C2H5(21)',
        atoms='C:2 H:5',
        thermo=(NASA([100.00, 1006.87],
                     [ 3.68745380E+00,  3.06903510E-03,  2.55868228E-05,
                      -2.94070210E-08,  9.94049079E-12,  1.31153653E+04,
                       6.96689006E+00]),
                NASA([1006.87, 5000.00],
                     [ 3.53785893E+00,  1.37310809E-02, -5.29559886E-06,
                       9.71471661E-10, -6.80280220E-14,  1.26351584E+04,
                       5.15538530E+00])),
        transport=gas_transport(geom='nonlinear',
                                diam=4.302,
                                well_depth=252.3,
                                rot_relax=1.5))

species(name='HCO(22)',
        atoms='C:1 H:1 O:1',
        thermo=(NASA([100.00, 1112.10],
                     [ 4.05936498E+00, -1.73847479E-03,  9.14984441E-06,
                      -8.01135632E-09,  2.25738876E-12,  3.84377613E+03,
                       3.32449376E+00]),
                NASA([1112.10, 5000.00],
                     [ 3.05135606E+00,  4.11707384E-03, -1.75586963E-06,
                       3.29304046E-10, -2.29175030E-14,  3.93008180E+03,
                       7.67467582E+00])),
        transport=gas_transport(geom='nonlinear',
                                diam=3.59,
                                well_depth=498.0))

species(name='CH3CHO(23)',
        atoms='C:2 H:4 O:1',
        thermo=(NASA([100.00, 1028.81],
                     [ 3.57992397E+00,  5.18983474E-03,  2.26897496E-05,
                      -2.73742644E-08,  9.28479682E-12, -2.13697374E+04,
                       8.96971567E+00]),
                NASA([1028.81, 5000.00],
                     [ 4.08563906E+00,  1.39061194E-02, -5.59370172E-06,
                       1.04609264E-09, -7.38738518E-14, -2.20391345E+04,
                       3.76801423E+00])),
        transport=gas_transport(geom='nonlinear',
                                diam=3.97,
                                well_depth=436.0,
                                rot_relax=2.0))

species(name='OH(24)',
        atoms='H:1 O:1',
        thermo=(NASA([100.00, 1145.76],
                     [ 3.51456841E+00,  2.92731942E-05, -5.32149835E-07,
                       1.01947431E-09, -3.85939061E-13,  3.41425418E+03,
                       2.10434749E+00]),
                NASA([1145.76, 5000.00],
                     [ 3.07193709E+00,  6.04020086E-04, -1.39807303E-08,
                      -2.13440498E-11,  2.48061111E-15,  3.57938799E+03,
                       4.57801556E+00])),
        transport=gas_transport(geom='linear',
                                diam=2.75,
                                well_depth=80.0))

species(name='C2H4(25)',
        atoms='C:2 H:4',
        thermo=(NASA([100.00, 979.37],
                     [ 3.97469045E+00, -4.75813325E-03,  4.16772624E-05,
                      -4.51377676E-08,  1.54218287E-11,  4.91540855E+03,
                       3.62439976E+00]),
                NASA([979.37, 5000.00],
                     [ 3.55670229E+00,  1.10625819E-02, -4.17009559E-06,
                       7.85564219E-10, -5.70042086E-14,  4.32042473E+03,
                       2.17665377E+00])),
        transport=gas_transport(geom='nonlinear',
                                diam=3.971,
                                well_depth=280.8,
                                rot_relax=1.5))

species(name='HO2(39)',
        atoms='H:1 O:2',
        thermo=(NASA([100.00, 1000.24],
                     [ 4.02425861E+00, -1.64549504E-03,  1.05110773E-05,
                      -1.06993350E-08,  3.49387579E-12,  2.34739940E+02,
                       4.70057285E+00]),
                NASA([1000.24, 5000.00],
                     [ 3.62866972E+00,  3.05389584E-03, -1.21131943E-06,
                       2.29641965E-10, -1.65063959E-14,  1.57931174E+02,
                       5.82961483E+00])),
        transport=gas_transport(geom='nonlinear',
                                diam=3.458,
                                well_depth=107.4,
                                rot_relax=1.0))

species(name='NH2(85)',
        atoms='H:2 N:1',
        thermo=(NASA([100.00, 1522.06],
                     [ 4.08973448E+00, -1.15510138E-03,  4.13792931E-06,
                      -2.48320358E-09,  4.84266256E-13,  2.11773523E+04,
                       2.89571669E-01]),
                NASA([1522.06, 5000.00],
                     [ 2.68017679E+00,  3.36838246E-03, -1.12726257E-06,
                       1.76551709E-10, -1.06782934E-14,  2.15115546E+04,
                       7.37028230E+00])),
        transport=gas_transport(geom='nonlinear',
                                diam=2.65,
                                well_depth=80.0,
                                polar=2.26,
                                rot_relax=4.0))

species(name='H2NO(89)',
        atoms='H:2 N:1 O:1',
        thermo=(NASA([100.00, 1947.24],
                     [ 3.94550180E+00,  3.66316432E-03,  9.70087511E-07,
                      -1.35905408E-09,  2.83752730E-13,  6.92849716E+03,
                       7.87015377E+00]),
                NASA([1947.24, 5000.00],
                     [ 4.51736704E+00,  5.03669808E-03, -2.05094495E-06,
                       3.47292734E-10, -2.16021755E-14,  6.22266854E+03,
                       3.48962006E+00])),
        transport=gas_transport(geom='nonlinear',
                                diam=3.492,
                                well_depth=116.7,
                                rot_relax=1.0))

species(name='HNOH(94)',
        atoms='H:2 N:1 O:1',
        thermo=(NASA([100.00, 1079.43],
                     [ 3.99732167E+00, -1.80625008E-03,  1.86002112E-05,
                      -1.83336675E-08,  5.59465932E-12,  1.04532478E+04,
                       5.15950943E+00]),
                NASA([1079.43, 5000.00],
                     [ 3.06223249E+00,  7.89055774E-03, -3.53441625E-06,
                       6.85254224E-10, -4.88982689E-14,  1.02920737E+04,
                       8.06058248E+00])),
        transport=gas_transport(geom='nonlinear',
                                diam=3.492,
                                well_depth=116.7,
                                rot_relax=1.0))

species(name='N2H3(99)',
        atoms='H:3 N:2',
        thermo=(NASA([100.00, 955.85],
                     [ 3.91768783E+00, -3.83381496E-04,  1.77764883E-05,
                      -1.98110296E-08,  6.88394875E-12,  2.56658759E+04,
                       5.60359104E+00]),
                NASA([955.85, 5000.00],
                     [ 3.57340914E+00,  6.73339158E-03, -2.29911178E-06,
                       4.03433158E-10, -2.79692097E-14,  2.54723965E+04,
                       5.89263001E+00])),
        transport=gas_transport(geom='nonlinear',
                                diam=3.9,
                                well_depth=200.0,
                                rot_relax=1.0))

species(name='H3N2O(193)',
        atoms='H:3 N:2 O:1',
        thermo=(NASA([100.00, 1009.73],
                     [ 3.29854241E+00,  1.08119461E-02,  9.10244225E-06,
                      -1.84281526E-08,  7.37180310E-12,  1.63940656E+04,
                       1.00364511E+01]),
                NASA([1009.73, 5000.00],
                     [ 6.80542984E+00,  8.03028652E-03, -3.27062012E-06,
                       6.38511418E-10, -4.70164467E-14,  1.51194600E+04,
                      -9.72092806E+00])),
        transport=gas_transport(geom='nonlinear',
                                diam=5.118,
                                well_depth=237.1))

species(name='H2NO2(195)',
        atoms='H:2 N:1 O:2',
        thermo=(NASA([10.00, 472.07],
                     [ 3.95539000E+00,  2.96043000E-03,  4.82302000E-05,
                      -1.14933000E-07,  8.22820000E-11,  1.73084000E+04,
                       7.52605000E+00]),
                NASA([472.07, 3000.00],
                     [ 3.92592000E+00,  1.18321000E-02, -7.35574000E-06,
                       2.25585000E-09, -2.68322000E-13,  1.72151000E+04,
                       6.62858000E+00])),
        transport=gas_transport(geom='nonlinear',
                                diam=5.118,
                                well_depth=237.1))

species(name='S(196)',
        atoms='H:3 N:2 O:2',
        thermo=(NASA([10.00, 358.31],
                     [ 3.84475000E+00,  1.28734000E-02,  8.95078000E-05,
                      -3.22675000E-07,  3.22422000E-10,  1.06807000E+04,
                       9.36296000E+00]),
                NASA([358.31, 3000.00],
                     [ 4.77954000E+00,  1.99017000E-02, -1.30245000E-05,
                       4.12179000E-09, -4.99199000E-13,  1.05016000E+04,
                       4.24818000E+00])),
        transport=gas_transport(geom='nonlinear',
                                diam=4.687,
                                well_depth=531.4))

species(name='H2NO3(252)',
        atoms='H:2 N:1 O:3',
        thermo=(NASA([100.00, 711.09],
                     [ 2.90868914E+00,  2.68643201E-02, -4.02732531E-05,
                       3.78785524E-08, -1.49723301E-11,  9.17614779E+03,
                       2.98716557E+01]),
                NASA([711.09, 5000.00],
                     [ 4.54299483E+00,  1.46287361E-02, -8.04539667E-06,
                       1.64728580E-09, -1.19060950E-13,  9.02063765E+03,
                       2.30851458E+01])),
        transport=gas_transport(geom='nonlinear',
                                diam=4.687,
                                well_depth=531.4))

species(name='NH2NO(501)',
        atoms='H:2 N:2 O:1',
        thermo=(NASA([100.00, 990.04],
                     [ 3.57580579E+00,  5.12312122E-03,  1.56588600E-05,
                      -2.25491014E-08,  8.49938127E-12,  8.07984565E+03,
                       7.65077951E+00]),
                NASA([990.04, 5000.00],
                     [ 5.80628362E+00,  6.64868110E-03, -2.61750756E-06,
                       5.08236118E-10, -3.76371558E-14,  7.12177967E+03,
                      -5.69571619E+00])),
        transport=gas_transport(geom='nonlinear',
                                diam=5.118,
                                well_depth=237.1))

species(name='H2N2O(503)',
        atoms='H:2 N:2 O:1',
        thermo=(NASA([100.00, 1118.22],
                     [ 3.39435421E+00,  1.10536354E-02, -2.64146511E-06,
                      -3.15079979E-09,  1.60712502E-12,  2.75358830E+04,
                       9.12949291E+00]),
                NASA([1118.22, 5000.00],
                     [ 6.00801772E+00,  6.33815639E-03, -2.53200276E-06,
                       4.89796452E-10, -3.53156695E-14,  2.66616372E+04,
                      -5.06739846E+00])),
        transport=gas_transport(geom='nonlinear',
                                diam=5.118,
                                well_depth=237.1))

species(name='S(566)',
        atoms='H:4 N:2 O:2',
        thermo=(NASA([100.00, 2391.45],
                     [ 3.38868349E+00,  1.85639743E-02, -9.95978203E-06,
                       2.06678541E-09, -1.44285187E-13,  7.82852523E+03,
                       1.30850515E+01]),
                NASA([2391.45, 5000.00],
                     [ 1.42510174E+01,  3.35536693E-03, -2.27704423E-06,
                       4.42636744E-10, -2.86051820E-14,  1.78676330E+03,
                      -5.05599729E+01])),
        transport=gas_transport(geom='nonlinear',
                                diam=4.687,
                                well_depth=531.4))

species(name='X(1)',
        atoms='X:1',
        thermo=(NASA([100.00, 1554.81],
                     [ 7.10134880E-03, -4.25615041E-05,  8.98521156E-08,
                      -7.80182565E-11,  2.32462166E-14, -8.76099414E-01,
                      -3.11209498E-02]),
                NASA([1554.81, 5000.00],
                     [ 1.60301287E-01, -2.52237396E-04,  1.14182282E-07,
                      -1.21473809E-11,  3.85806589E-16, -7.08108147E+01,
                      -9.09535600E-01])))

species(name='HX(26)',
        atoms='H:1 X:1',
        thermo=(NASA([100.00, 952.91],
                     [-3.80957846E-01,  5.47219393E-03,  2.60946928E-06,
                      -9.65008412E-09,  4.63967474E-12, -2.48370421E+03,
                       1.01722845E+00]),
                NASA([952.91, 5000.00],
                     [ 2.80337105E+00, -5.41002993E-04,  4.99482316E-07,
                      -7.54902555E-11,  3.06721398E-15, -3.42444280E+03,
                      -1.59435356E+01])))

species(name='OX(27)',
        atoms='O:1 X:1',
        thermo=(NASA([100.00, 888.25],
                     [-7.59018036E-01,  1.89869128E-02, -3.82476163E-05,
                       3.43561864E-08, -1.13976013E-11, -2.35149535E+04,
                       1.76019150E+00]),
                NASA([888.25, 5000.00],
                     [ 1.89894867E+00,  2.03293217E-03, -1.19975265E-06,
                       2.32677501E-10, -1.53505623E-14, -2.37905047E+04,
                      -9.64111055E+00])))

species(name='CH3X(28)',
        atoms='C:1 H:3 X:1',
        thermo=(NASA([100.00, 848.30],
                     [-1.21090611E+00,  2.92390831E-02, -4.49011672E-05,
                       3.86010689E-08, -1.30361474E-11, -6.77931950E+03,
                       6.80940157E+00]),
                NASA([848.30, 5000.00],
                     [ 1.62291116E+00,  1.12987225E-02, -5.08316650E-06,
                       9.46832954E-10, -6.42885005E-14, -7.09538539E+03,
                      -5.42502394E+00])))

species(name='HOX(29)',
        atoms='H:1 O:1 X:1',
        thermo=(NASA([100.00, 914.54],
                     [-1.29521674E+00,  3.36486200E-02, -7.07755341E-05,
                       6.54367721E-08, -2.19434475E-11, -2.24850601E+04,
                       4.37653089E+00]),
                NASA([914.54, 5000.00],
                     [ 2.43538338E+00,  4.64605477E-03, -2.39990873E-06,