units(length='cm', time='s', quantity='mol', act_energy='kcal/mol')

ideal_gas(name='gas',
          elements="H D T C Ci O Oi N Ne Ar He Si S F Cl Br I X",
          species="""Ne          NH3(2)      NH2OH(3)    HNO3(4)
                     CH3OH(5)    H2O(6)      N2(7)       O2(8)
                     NO2(9)      NO(10)      N2O(11)     CO2(12)
                     H2(13)      CO(14)      CH4(15)     C2H6(16)
                     CH2O(17)    CH3(18)     C3H8(19)    H(20)
                     C2H5(21)    HCO(22)     CH3CHO(23)  OH(24)
                     C2H4(25)    O(36)       Ar(37)      HO2(39)
                     H2O2(40)    HOCO(41)    CH2(42)     CH2(S)(43)
                     CH(44)      CH2OH(45)   CH3O(46)    HCOH(47)
                     CH3OO(48)   CH2CO(49)   C2H3(50)    C(51)
                     C2H2(52)    C2H(53)     CH3OOH(54)  CH2OOH(55)
                     HOCH2O(56)  HOCHO(57)   C2H5O(58)   C2H5O2(59)
                     C2H5O2(60)  cC2H4O(61)  CH2CHO(62)  H2CC(63)
                     CH3CO(64)   C2H4O(65)   C2H5O(66)   C2H3O2(67)
                     CHCHO(68)   OCHCHO(69)  HCCO(70)    HCCOH(71)
                     CHCHOH(72)  C2(73)      C2O(74)     C2H6O(75)
                     C2H5O(76)   C2H5O3(77)  cC2H3O(78)  C2H3O3(79)
                     OCHCO(80)   C2H6O2(81)  C2H5O2(82)  C2H4O2(83)
                     OCHO(84)    NH2(85)     NH(86)      HNO(87)
                     H2NO(88)    HON(89)     N(90)       NNH(91)
                     HONO(92)    HNOH(93)    HNO2(94)    NO3(95)
                     N2H2(96)    H2N2(97)    N2H3(98)    N2H4(99)
                     HCN(100)    CN(101)     HNC(102)    NCO(103)
                     HOCN(104)   HNCO(105)   NCCN(106)   HNCN(107)
                     NCN(108)    HNCNH(109)  HCNO(110)   CH3CN(111)
                     CH2CN(112)  CH2NH(113)  H2CN(114)   CH3NO(115)
                     CH4N(116)   NCNOH(117)  NCNO(118)   CH2NO(119)
                     S(120)      S(121)      S(122)      S(123)
                     S(124)      S(125)      S(126)      S(127)
                     S(128)      S(129)      S(130)      S(131)
                     S(132)      CH5N(133)   CH3NH(134)  HCNH(135)
                     C2H7N(136)  C2H6N(137)  C2H6N(138)  C2H6N(139)
                     C2H5N(140)  C2H5N(141)  CH3NO(142)  C2H4N(143)
                     C2H4N(144)  C2H4N(145)  H2NCO(146)  C2H4N(147)
                     C2H4N(148)  C2H3N(149)  C2H3N(150)  C2H3N(151)
                     C2H3N(152)  CHCNH(153)  C2H3N(154)  C2H4N(155)
                     C2H6N(156)  C2H7N(157)  C2H6N(158)  C2H5N(159)
                     C2H4N(160)  H2NO3(231)  HN2O2(399)  S(698)
                     S(882)      S(1037)""",
          reactions='gas-*',
          transport='Mix',
          initial_state=state(temperature=300.0, pressure=OneAtm))

ideal_interface(name='surface1',
                elements="H D T C Ci O Oi N Ne Ar He Si S F Cl Br I X",
                species="""X(1)        HX(26)      OX(27)      CH3X(28)
                          HOX(29)     H2OX(30)    CO2X(31)    OCX(32)
                          CX(33)      CH2X(34)    CHX(35)     H2NX(201)
                          H3NX(202)   H2NOX(203)  H2NOX(204)  H3NOX(205)
                          NO2X(206)   HNO3X(208)  CH3OX(210)  CH4OX(211)
                          NO2X(213)   H2X(216)    SX(481)     SX(482)
                          HNO2X(492)  CH2OX(511)  HNX(525)    HNOX(526)
                          SX(542)     SX(545)     NX(608)     SX(613)
                          CH3NX(657)  CHOX(665)   CH2NX(666)  SX(667)
                          CNO2X(669)  SX(672)     SX(725)     SX(731)
                          CNO2X(792)  SX(1241)    SX(1371)    SX(1469)""",
                site_density=2.483e-09,
                phases="gas",
          reactions='surface1-*',
                initial_state=state(temperature=300.0, pressure=OneAtm))

#-------------------------------------------------------------------------------
# Element data
#-------------------------------------------------------------------------------

element(symbol='Ci', atomic_mass=13.003)
element(symbol='D', atomic_mass=2.014)
element(symbol='Oi', atomic_mass=18.0)
element(symbol='T', atomic_mass=3.016)
element(symbol='X', atomic_mass=195.083)
#-------------------------------------------------------------------------------
# Species data
#-------------------------------------------------------------------------------

species(name='Ne',
        atoms='Ne:1',
        thermo=(NASA([200.00, 1000.00],
                     [ 2.50000000E+00,  0.00000000E+00,  0.00000000E+00,
                       0.00000000E+00,  0.00000000E+00, -7.45375000E+02,
                       3.35532000E+00]),
                NASA([1000.00, 6000.00],
                     [ 2.50000000E+00,  0.00000000E+00,  0.00000000E+00,
                       0.00000000E+00,  0.00000000E+00, -7.45375000E+02,
                       3.35532000E+00])),
        transport=gas_transport(geom='atom',
                                diam=3.758,
                                well_depth=148.6))

species(name='NH3(2)',
        atoms='H:3 N:1',
        thermo=(NASA([100.00, 993.33],
                     [ 4.09068691E+00, -2.07162736E-03,  1.14751809E-05,
                      -9.47495756E-09,  2.61220220E-12, -6.69036399E+03,
                       2.22559730E-02]),
                NASA([993.33, 5000.00],
                     [ 2.12302389E+00,  6.45658404E-03, -2.31618151E-06,
                       3.93869294E-10, -2.58107704E-14, -6.32928998E+03,
                       9.35175470E+00])),
        transport=gas_transport(geom='nonlinear',
                                diam=2.92,
                                well_depth=481.001,
                                dipole=1.47,
                                rot_relax=10.0))

species(name='NH2OH(3)',
        atoms='H:3 N:1 O:1',
        thermo=(NASA([100.00, 1003.06],
                     [ 3.82099339E+00, -4.71622825E-04,  2.62904129E-05,
                      -3.05247151E-08,  1.06030694E-11, -6.16559052E+03,
                       5.65842332E+00]),
                NASA([1003.06, 5000.00],
                     [ 4.72262416E+00,  7.57957297E-03, -3.16645567E-06,
                       6.29236065E-10, -4.68394343E-14, -6.93236902E+03,
                      -1.61475606E+00])),
        transport=gas_transport(geom='nonlinear',
                                diam=3.492,
                                well_depth=116.7,
                                rot_relax=1.0))

species(name='HNO3(4)',
        atoms='H:1 N:1 O:3',
        thermo=(NASA([100.00, 964.74],
                     [ 3.37980264E+00,  7.07784754E-03,  1.89742211E-05,
                      -3.13221880E-08,  1.27353105E-11, -1.74102622E+04,
                       1.01296888E+01]),
                NASA([964.74, 5000.00],
                     [ 8.17853060E+00,  3.61030052E-03, -1.17846501E-06,
                       2.55817825E-10, -2.19837792E-14, -1.91007042E+04,
                      -1.68115450E+01])),
        transport=gas_transport(geom='nonlinear',
                                diam=4.2,
                                well_depth=400.0,
                                dipole=0.2,
                                rot_relax=1.0))

species(name='CH3OH(5)',
        atoms='C:1 H:4 O:1',
        thermo=(NASA([100.00, 1035.75],
                     [ 3.84006214E+00,  1.38241998E-03,  1.91667191E-05,
                      -2.01568660E-08,  6.39102259E-12, -2.56083087E+04,
                       5.90978137E+00]),
                NASA([1035.75, 5000.00],
                     [ 2.79184298E+00,  1.15827852E-02, -4.51551928E-06,
                       8.21206706E-10, -5.67063250E-14, -2.57211674E+04,
                       9.41061586E+00])),
        transport=gas_transport(geom='nonlinear',
                                diam=3.626,
                                well_depth=481.802,
                                rot_relax=1.0))

species(name='H2O(6)',
        atoms='H:2 O:1',
        thermo=(NASA([100.00, 1130.24],
                     [ 4.05763610E+00, -7.87938871E-04,  2.90878480E-06,
                      -1.47520039E-09,  2.12847506E-13, -3.02815866E+04,
                      -3.11365027E-01]),
                NASA([1130.24, 5000.00],
                     [ 2.84324866E+00,  2.75108838E-03, -7.81033120E-07,
                       1.07244016E-10, -5.79395308E-15, -2.99586120E+04,
                       5.91043011E+00])),
        transport=gas_transport(geom='nonlinear',
                                diam=2.641,
                                well_depth=809.102,
                                polar=1.76,
                                rot_relax=4.0))

species(name='N2(7)',
        atoms='N:2',
        thermo=(NASA([200.00, 1000.00],
                     [ 3.53101000E+00, -1.23661000E-04, -5.02999000E-07,
                       2.43531000E-09, -1.40881000E-12, -1.04698000E+03,
                       2.96747000E+00]),
                NASA([1000.00, 6000.00],
                     [ 2.95258000E+00,  1.39690000E-03, -4.92632000E-07,
                       7.86010000E-11, -4.60755000E-15, -9.23949000E+02,
                       5.87189000E+00])),
        transport=gas_transport(geom='linear',
                                diam=3.621,
                                well_depth=97.53,
                                polar=1.76,
                                rot_relax=4.0))

species(name='O2(8)',
        atoms='O:2',
        thermo=(NASA([100.00, 1074.56],
                     [ 3.53732181E+00, -1.21570930E-03,  5.31617826E-06,
                      -4.89443424E-09,  1.45845042E-12, -1.03858846E+03,
                       4.68368406E+00]),
                NASA([1074.56, 5000.00],
                     [ 3.15382425E+00,  1.67803802E-03, -7.69971022E-07,
                       1.51274714E-10, -1.08781801E-14, -1.04081878E+03,
                       6.16753884E+00])),
        transport=gas_transport(geom='linear',
                                diam=3.467,
                                well_depth=106.7))

species(name='NO2(9)',
        atoms='N:1 O:2',
        thermo=(NASA([100.00, 1003.64],
                     [ 3.95016408E+00, -1.10874097E-03,  1.34095436E-05,
                      -1.53100307E-08,  5.30985898E-12,  2.97329576E+03,
                       6.19460333E+00]),
                NASA([1003.64, 5000.00],
                     [ 4.42989913E+00,  2.84572522E-03, -1.26844172E-06,
                       2.63832529E-10, -2.02198342E-14,  2.58153936E+03,
                       2.40646946E+00])),
        transport=gas_transport(geom='nonlinear',
                                diam=3.5,
                                well_depth=200.001,
                                rot_relax=1.0))

species(name='NO(10)',
        atoms='N:1 O:1',
        thermo=(NASA([100.00, 1406.98],
                     [ 3.55718369E+00, -8.90593517E-04,  2.98559505E-06,
                      -2.08693970E-09,  4.65970604E-13,  9.95239674E+03,
                       4.55250679E+00]),
                NASA([1406.98, 5000.00],
                     [ 2.93794002E+00,  1.75430211E-03, -7.77035965E-07,
                       1.42658630E-10, -9.57892926E-15,  1.00391110E+04,
                       7.44035185E+00])),
        transport=gas_transport(geom='linear',
                                diam=3.621,
                                well_depth=97.53,
                                polar=1.76,
                                rot_relax=4.0))

species(name='N2O(11)',
        atoms='N:2 O:1',
        thermo=(NASA([100.00, 1026.61],
                     [ 3.22183369E+00,  4.41469435E-03,  2.54409215E-06,
                      -6.06073216E-09,  2.45092024E-12,  8.76576974E+03,
                       6.72928682E+00]),
                NASA([1026.61, 5000.00],
                     [ 4.61742785E+00,  3.00864961E-03, -1.29224171E-06,
                       2.55914754E-10, -1.88714260E-14,  8.26677203E+03,
                      -1.07502599E+00])),
        transport=gas_transport(geom='linear',
                                diam=3.828,
                                well_depth=232.401,
                                rot_relax=1.0))

species(name='CO2(12)',
        atoms='C:1 O:2',
        thermo=(NASA([100.00, 978.21],
                     [ 3.28084634E+00,  2.50183460E-03,  8.08199998E-06,
                      -1.20511416E-08,  4.66547255E-12, -4.84008304E+04,
                       6.00080795E+00]),
                NASA([978.21, 5000.00],
                     [ 4.67426743E+00,  2.60964031E-03, -9.85689857E-07,
                       1.95713857E-10, -1.49836245E-14, -4.89512140E+04,
                      -2.11073617E+00])),
        transport=gas_transport(geom='linear',
                                diam=3.941,
                                well_depth=195.201))

species(name='H2(13)',
        atoms='H:2',
        thermo=(NASA([100.00, 1959.08],
                     [ 3.43536412E+00,  2.12710353E-04, -2.78625043E-07,
                       3.40267167E-10, -7.76031998E-14, -1.03135984E+03,
                      -3.90841732E+00]),
                NASA([1959.08, 5000.00],
                     [ 2.78816583E+00,  5.87640942E-04,  1.59010417E-07,
                      -5.52739026E-11,  4.34310984E-15, -5.96144270E+02,
                       1.12732655E-01])),
        transport=gas_transport(geom='linear',
                                diam=2.833,
                                well_depth=59.7))

species(name='CO(14)',
        atoms='C:1 O:1',
        thermo=(NASA([100.00, 1571.63],
                     [ 3.56838038E+00, -8.52129500E-04,  2.48918819E-06,
                      -1.56331996E-09,  3.13598127E-13, -1.42842550E+04,
                       3.57912028E+00]),
                NASA([1571.63, 5000.00],
                     [ 2.91305202E+00,  1.64659937E-03, -6.88625686E-07,
                       1.21039677E-10, -7.84035796E-15, -1.41808768E+04,
                       6.71054299E+00])),
        transport=gas_transport(geom='linear',
                                diam=3.69,
                                well_depth=91.7,
                                polar=1.76,
                                rot_relax=4.0))

species(name='CH4(15)',
        atoms='C:1 H:4',
        thermo=(NASA([100.00, 1084.12],
                     [ 4.20541524E+00, -5.35557362E-03,  2.51123265E-05,
                      -2.13762843E-08,  5.97523937E-12, -1.01619433E+04,
                      -9.21279283E-01]),
                NASA([1084.12, 5000.00],
                     [ 9.08265721E-01,  1.14540858E-02, -4.57173828E-06,
                       8.29191671E-10, -5.66314895E-14, -9.71997444E+03,
                       1.39930944E+01])),
        transport=gas_transport(geom='nonlinear',
                                diam=3.746,
                                well_depth=141.4,
                                polar=2.6,
                                rot_relax=13.0))

species(name='C2H6(16)',
        atoms='C:2 H:6',
        thermo=(NASA([100.00, 1012.42],
                     [ 3.72239291E+00,  1.65083841E-03,  3.44175530E-05,
                      -3.76858229E-08,  1.24450657E-11, -1.15575901E+04,
                       4.68247999E+00]),
                NASA([1012.42, 5000.00],
                     [ 2.82848257E+00,  1.73040568E-02, -6.73334245E-06,
                       1.23742024E-09, -8.65676410E-14, -1.19978080E+04,
                       5.93811707E+00])),
        transport=gas_transport(geom='nonlinear',
                                diam=4.302,
                                well_depth=252.301,
                                rot_relax=1.5))

species(name='CH2O(17)',
        atoms='C:1 H:2 O:1',
        thermo=(NASA([100.00, 1070.44],
                     [ 4.12927802E+00, -4.08401318E-03,  2.03229341E-05,
                      -1.83524244E-08,  5.37975522E-12, -1.44294640E+04,
                       3.22418463E+00]),
                NASA([1070.44, 5000.00],
                     [ 2.21172442E+00,  7.94265679E-03, -3.34193053E-06,
                       6.28471401E-10, -4.40431446E-14, -1.42974456E+04,
                       1.13048985E+01])),
        transport=gas_transport(geom='nonlinear',
                                diam=3.59,
                                well_depth=498.002,
                                rot_relax=2.0))

species(name='CH3(18)',
        atoms='C:1 H:3',
        thermo=(NASA([100.00, 697.71],
                     [ 3.96043098E+00,  5.92939934E-04,  8.78575390E-06,
                      -9.88030557E-09,  3.63234580E-12,  1.64218818E+04,
                       3.39865631E-01]),
                NASA([697.71, 5000.00],
                     [ 3.09511187E+00,  5.55429874E-03, -1.88158855E-06,
                       3.13335012E-10, -2.05195181E-14,  1.65426192E+04,
                       4.20297876E+00])),
        transport=gas_transport(geom='nonlinear',
                                diam=3.8,
                                well_depth=144.001))

species(name='C3H8(19)',
        atoms='C:3 H:8',
        thermo=(NASA([100.00, 989.99],
                     [ 3.06336167E+00,  1.29214561E-02,  3.47032808E-05,
                      -4.70946154E-08,  1.71384141E-11, -1.43905789E+04,
                       1.07835592E+01]),
                NASA([989.99, 5000.00],
                     [ 5.60440043E+00,  2.19528785E-02, -8.22080610E-06,
                       1.50103993E-09, -1.05635358E-13, -1.58394038E+04,
                      -6.22623300E+00])),
        transport=gas_transport(geom='nonlinear',
                                diam=4.982,
                                well_depth=266.801,
                                rot_relax=1.0))

species(name='H(20)',
        atoms='H:1',
        thermo=(NASA([100.00, 3459.60],
                     [ 2.50000000E+00,  9.24384602E-15, -1.36779837E-17,
                       6.66184769E-21, -1.00106912E-24,  2.54742178E+04,
                      -4.44972896E-01]),
                NASA([3459.60, 5000.00],
                     [ 2.49999999E+00,  9.20455546E-12, -3.58608293E-15,
                       6.15198922E-19, -3.92041801E-23,  2.54742178E+04,
                      -4.44972842E-01])),
        transport=gas_transport(geom='atom',
                                diam=2.05,
                                well_depth=145.0))

species(name='C2H5(21)',
        atoms='C:2 H:5',
        thermo=(NASA([100.00, 1006.87],
                     [ 3.68746539E+00,  3.06889693E-03,  2.55873112E-05,
                      -2.94076576E-08,  9.94076215E-12,  1.31153648E+04,
                       6.96684864E+00]),
                NASA([1006.87, 5000.00],
                     [ 3.53781010E+00,  1.37311636E-02, -5.29564638E-06,
                       9.71482858E-10, -6.80289490E-14,  1.26351790E+04,
                       5.15566048E+00])),
        transport=gas_transport(geom='nonlinear',
                                diam=4.302,
                                well_depth=252.301,
                                rot_relax=1.5))

species(name='HCO(22)',
        atoms='C:1 H:1 O:1',
        thermo=(NASA([100.00, 1112.10],
                     [ 4.05936407E+00, -1.73846452E-03,  9.14981041E-06,
                      -8.01131526E-09,  2.25737264E-12,  3.84377617E+03,
                       3.32449702E+00]),
                NASA([1112.10, 5000.00],
                     [ 3.05136186E+00,  4.11706437E-03, -1.75586433E-06,
                       3.29302821E-10, -2.29174030E-14,  3.93007923E+03,
                       7.67464289E+00])),
        transport=gas_transport(geom='nonlinear',
                                diam=3.59,
                                well_depth=498.002))

species(name='CH3CHO(23)',
        atoms='C:2 H:4 O:1',
        thermo=(NASA([100.00, 1028.81],
                     [ 3.57991319E+00,  5.18996203E-03,  2.26893060E-05,
                      -2.73736957E-08,  9.28455869E-12, -2.13697369E+04,
                       8.96975431E+00]),
                NASA([1028.81, 5000.00],
                     [ 4.08568882E+00,  1.39060358E-02, -5.59365394E-06,
                       1.04608143E-09, -7.38729265E-14, -2.20391558E+04,
                       3.76773341E+00])),
        transport=gas_transport(geom='nonlinear',
                                diam=3.97,
                                well_depth=436.001,
                                rot_relax=2.0))

species(name='OH(24)',
        atoms='H:1 O:1',
        thermo=(NASA([100.00, 1145.75],
                     [ 3.51456768E+00,  2.92814373E-05, -5.32176582E-07,
                       1.01950588E-09, -3.85951152E-13,  3.41425421E+03,
                       2.10435015E+00]),
                NASA([1145.75, 5000.00],
                     [ 3.07194246E+00,  6.04011411E-04, -1.39759127E-08,
                      -2.13451563E-11,  2.48070095E-15,  3.57938557E+03,
                       4.57798500E+00])),
        transport=gas_transport(geom='linear',
                                diam=2.75,
                                well_depth=80.0))

species(name='C2H4(25)',
        atoms='C:2 H:4',
        thermo=(NASA([100.00, 979.36],
                     [ 3.97471606E+00, -4.75844285E-03,  4.16783770E-05,
                      -4.51392516E-08,  1.54224761E-11,  4.91540746E+03,
                       3.62430844E+00]),
                NASA([979.36, 5000.00],
                     [ 3.55660610E+00,  1.10627464E-02, -4.17019079E-06,
                       7.85586770E-10, -5.70060829E-14,  4.32046489E+03,
                       2.17719479E+00])),
        transport=gas_transport(geom='nonlinear',
                                diam=3.971,
                                well_depth=280.801,
                                rot_relax=1.5))

species(name='O(36)',
        atoms='O:1',
        thermo=(NASA([100.00, 3459.60],
                     [ 2.50000000E+00,  9.24384602E-15, -1.36779837E-17,
                       6.66184769E-21, -1.00106912E-24,  2.92302441E+04,
                       5.12616427E+00]),
                NASA([3459.60, 5000.00],
                     [ 2.49999999E+00,  9.20455546E-12, -3.58608293E-15,
                       6.15198922E-19, -3.92041801E-23,  2.92302441E+04,
                       5.12616433E+00])),
        transport=gas_transport(geom='atom',
                                diam=2.75,
                                well_depth=80.0))

species(name='Ar(37)',
        atoms='Ar:1',
        thermo=(NASA([200.00, 1000.00],
                     [ 2.50000000E+00,  0.00000000E+00,  0.00000000E+00,
                       0.00000000E+00,  0.00000000E+00, -7.45375000E+02,
                       4.37967000E+00]),
                NASA([1000.00, 6000.00],
                     [ 2.50000000E+00,  0.00000000E+00,  0.00000000E+00,
                       0.00000000E+00,  0.00000000E+00, -7.45375000E+02,
                       4.37967000E+00])),
        transport=gas_transport(geom='atom',
                                diam=3.33,
                                well_depth=136.501))

species(name='HO2(39)',
        atoms='H:1 O:2',
        thermo=(NASA([100.00, 1000.25],
                     [ 4.02425547E+00, -1.64545752E-03,  1.05109441E-05,
                      -1.06991604E-08,  3.49380097E-12,  2.34740074E+02,
                       4.70058405E+00]),
                NASA([1000.25, 5000.00],
                     [ 3.62868258E+00,  3.05387401E-03, -1.21130686E-06,
                       2.29639000E-10, -1.65061502E-14,  1.57925751E+02,
                       5.82954238E+00])),
        transport=gas_transport(geom='nonlinear',
                                diam=3.458,
                                well_depth=107.4,
                                rot_relax=1.0))

species(name='H2O2(40)',
        atoms='H:2 O:2',
        thermo=(NASA([100.00, 1005.78],
                     [ 3.81666060E+00,  2.71177103E-03,  6.17757060E-06,
                      -8.24839330E-09,  2.92664300E-12, -1.76922539E+04,
                       5.38575095E+00]),
                NASA([1005.78, 5000.00],
                     [ 4.14711917E+00,  4.72694898E-03, -1.79320499E-06,
                       3.26120398E-10, -2.27309864E-14, -1.79271299E+04,
                       2.95240617E+00])),
        transport=gas_transport(geom='nonlinear',
                                diam=4.196,
                                well_depth=289.3))

species(name='HOCO(41)',
        atoms='C:1 H:1 O:2',
        thermo=(NASA([100.00, 964.14],
                     [ 3.57770317E+00,  4.99216011E-03,  1.17086806E-05,
                      -1.99887055E-08,  8.20580015E-12, -2.33965411E+04,
                       8.08902700E+00]),
                NASA([964.14, 5000.00],
                     [ 6.82913025E+00,  2.24159245E-03, -7.19512259E-07,
                       1.57578116E-10, -1.36964658E-14, -2.45226298E+04,
                      -1.00669301E+01])),
        transport=gas_transport(geom='nonlinear',
                                diam=3.59,
                                well_depth=498.0,
                                rot_relax=2.0))

species(name='CH2(42)',
        atoms='C:1 H:2',
        thermo=(NASA([100.00, 1104.58],
                     [ 4.01192393E+00, -1.54979233E-04,  3.26297968E-06,
                      -2.40421972E-09,  5.69497258E-13,  4.58676802E+04,
                       5.33200312E-01]),
                NASA([1104.58, 5000.00],
                     [ 3.14983412E+00,  2.96674212E-03, -9.76055554E-07,
                       1.54115208E-10, -9.50337502E-15,  4.60581389E+04,
                       4.77807527E+00])),
        transport=gas_transport(geom='nonlinear',
                                diam=3.8,
                                well_depth=144.001))

species(name='CH2(S)(43)',
        atoms='C:1 H:2',
        thermo=(NASA([100.00, 1442.36],
                     [ 4.10264362E+00, -1.44068286E-03,  5.45068647E-06,
                      -3.58001767E-09,  7.56191912E-13,  5.04005785E+04,
                      -4.11765347E-01]),
                NASA([1442.36, 5000.00],
                     [ 2.62647538E+00,  3.94762723E-03, -1.49924031E-06,
                       2.54538925E-10, -1.62955656E-14,  5.06917525E+04,
                       6.78378290E+00])),
        transport=gas_transport(geom='nonlinear',
                                diam=3.8,
                                well_depth=144.001))

species(name='CH(44)',
        atoms='C:1 H:1',
        thermo=(NASA([100.00, 971.38],
                     [ 3.53295839E+00, -5.83811011E-05, -6.75423214E-07,
                       1.93832083E-09, -9.35475291E-13,  7.05679540E+04,
                       1.86652484E+00]),
                NASA([971.38, 5000.00],
                     [ 2.74762568E+00,  1.51393905E-03, -5.37629343E-07,
                       8.28576416E-11, -4.75153399E-15,  7.07989167E+04,
                       6.03600096E+00])),
        transport=gas_transport(geom='linear',
                                diam=2.75,
                                well_depth=80.0))

species(name='CH2OH(45)',
        atoms='C:1 H:3 O:1',
        thermo=(NASA([100.00, 1015.48],
                     [ 3.61905444E+00,  6.28695698E-03,  5.57453382E-06,
                      -9.77872604E-09,  3.69458574E-12, -3.32162396E+03,
                       6.61713040E+00]),
                NASA([1015.48, 5000.00],
                     [ 4.77201169E+00,  6.78473588E-03, -2.60442931E-06,
                       4.77565512E-10, -3.34609211E-14, -3.81561325E+03,
                      -2.42265753E-01])),
        transport=gas_transport(geom='nonlinear',
                                diam=3.69,
                                well_depth=417.002,
                                dipole=1.7,
                                rot_relax=2.0))

species(name='CH3O(46)',
        atoms='C:1 H:3 O:1',
        thermo=(NASA([100.00, 985.45],
                     [ 3.95613787E+00, -3.06320855E-03,  3.06887593E-05,
                      -3.34128285E-08,  1.13930971E-11,  1.19253580E+03,
                       4.69432285E+00]),
                NASA([985.45, 5000.00],
                     [ 3.74488672E+00,  8.52633291E-03, -3.28794143E-06,
                       6.23972749E-10, -4.53282945E-14,  7.13067763E+02,
                       3.06640880E+00])),
        transport=gas_transport(geom='nonlinear',
                                diam=3.69,
                                well_depth=417.002,
                                dipole=1.7,
                                rot_relax=2.0))

species(name='HCOH(47)',
        atoms='C:1 H:2 O:1',
        thermo=(NASA([100.00, 1030.21],
                     [ 4.09305681E+00, -4.72803065E-03,  2.65299641E-05,
                      -2.62737743E-08,  8.32857620E-12,  1.18827231E+04,
                       4.17580785E+00]),
                NASA([1030.21, 5000.00],
                     [ 2.95248273E+00,  7.75182592E-03, -3.36376869E-06,
                       6.57071776E-10, -4.76174988E-14,  1.16904722E+04,
                       7.63872242E+00])),
        transport=gas_transport(geom='nonlinear',
                                diam=4.443,
                                well_depth=110.7))

species(name='CH3OO(48)',
        atoms='C:1 H:3 O:2',
        thermo=(NASA([100.00, 1031.35],
                     [ 3.58600855E+00,  6.15348645E-03,  1.33269290E-05,
                      -1.76581521E-08,  6.13210932E-12,  2.48233564E+02,
                       9.74096027E+00]),
                NASA([1031.35, 5000.00],
                     [ 4.35022282E+00,  1.07183275E-02, -4.26215078E-06,
                       7.89578335E-10, -5.53846326E-14, -3.09810145E+02,
                       4.08928223E+00])),
        transport=gas_transport(geom='nonlinear',
                                diam=3.69,
                                well_depth=417.0,
                                dipole=1.7,
                                rot_relax=2.0))
